# Mol2 file generated by Materials Studio
@<TRIPOS>MOLECULE
"mol_ED-523T"
81 82 3 0 0 
SMALL
USER_CHARGES


@<TRIPOS>ATOM
1 C4 3.38702 -3.28477 -0.0884049 C.3 1 UNL1 0
2 C5 4.80938 -2.83303 0.292009 C.3 1 UNL1 0
3 C6 5.13475 -1.56212 -0.513687 C.3 1 UNL1 0
4 H6 3.26967 -4.39696 0.13266 H 1 UNL1 0
5 H7 3.21333 -3.09779 -1.19947 H 1 UNL1 0
6 H9 4.97283 -1.76416 -1.62389 H 1 UNL1 0
7 H10 6.22145 -1.26715 -0.335665 H 1 UNL1 0
8 H 4.84959 -2.59847 1.40689 H 1 UNL1 0
9 H 2.6252 -2.69396 0.520009 H 1 UNL1 0
10 H 4.45092 -0.713974 -0.178099 H 1 UNL1 0
11 C1 0.0431479 -6.92637 0.174789 C.3 2 UNL1 0
12 C2 0.52049 -5.9401 -0.906597 C.3 2 UNL1 0
13 C3 2.01828 -5.64729 -0.704288 C.3 2 UNL1 0
14 O1 2.90301 -6.86025 -0.872309 O.3 2 UNL1 0
15 C4 4.30921 -6.33576 -0.697739 C.3 2 UNL1 0
16 C5 4.51107 -5.88751 0.761976 C.3 2 UNL1 0
17 O2 5.84446 -3.88353 -0.0414749 O.3 2 UNL1 0
18 C6 5.81971 -5.08474 0.876853 C.3 2 UNL1 0
19 C7 0.292224 -6.55848 -2.29807 C.3 2 UNL1 0
20 C8 -0.211192 -4.58464 -0.820688 C.3 2 UNL1 0
21 O3 -1.70681 -4.69618 -1.00265 O.3 2 UNL1 0
22 C9 -2.3637 -5.24748 0.240177 C.3 2 UNL1 0
23 C10 -3.89317 -5.19247 0.0686497 C.3 2 UNL1 0
24 O4 -4.43491 -5.40668 -1.3152 O.3 2 UNL1 0
25 C11 -4.43585 -4.00037 -0.737973 C.3 2 UNL1 0
26 H1 -1.02501 -7.2528 -0.0534537 H 2 UNL1 0
27 H2 0.725695 -7.83941 0.184318 H 2 UNL1 0
28 H3 0.0752773 -6.41725 1.19428 H 2 UNL1 0
29 H4 2.17071 -5.22502 0.343592 H 2 UNL1 0
30 H5 2.35982 -4.87047 -1.46554 H 2 UNL1 0
31 H6 4.47309 -5.44817 -1.3941 H 2 UNL1 0
32 H7 5.05601 -7.15947 -0.94955 H 2 UNL1 0
33 H9 6.69621 -5.76641 0.618652 H 2 UNL1 0
34 H10 5.94371 -4.71124 1.94677 H 2 UNL1 0
35 H11 0.714081 -7.61738 -2.31717 H 2 UNL1 0
36 H12 0.818897 -5.92534 -3.08633 H 2 UNL1 0
37 H13 -0.825313 -6.59058 -2.52096 H 2 UNL1 0
38 H14 0.205686 -3.89074 -1.62339 H 2 UNL1 0
39 H15 -0.0252683 -4.1166 0.202038 H 2 UNL1 0
40 H16 -2.05858 -4.62099 1.14241 H 2 UNL1 0
41 H17 -2.03407 -6.32745 0.39703 H 2 UNL1 0
42 H18 -4.52823 -5.56393 0.939455 H 2 UNL1 0
43 H19 -3.65665 -3.28352 -1.16055 H 2 UNL1 0
44 H20 -5.30358 -3.52302 -0.173372 H 2 UNL1 0
45 H 3.63158 -5.24222 1.09316 H 2 UNL1 0
46 C1 7.75149 -11.5042 3.13074 C.3 3 UNL1 0
47 C2 8.22348 -11.3357 1.67496 C.3 3 UNL1 0
48 C3 9.76345 -11.3542 1.64454 C.3 3 UNL1 0
49 O1 10.2558 -12.6721 2.19281 O.3 3 UNL1 0
50 C4 11.7617 -12.7231 2.09565 C.3 3 UNL1 0
51 C5 12.3692 -11.5733 2.9194 C.3 3 UNL1 0
52 O2 12.4808 -10.2439 2.23075 O.3 3 UNL1 0
53 C6 13.7437 -11.0588 2.45956 C.3 3 UNL1 0
54 C7 7.69523 -12.5104 0.832089 C.3 3 UNL1 0
55 C8 7.72821 -10.012 1.05719 C.3 3 UNL1 0
56 O3 6.22002 -9.9178 0.97641 O.3 3 UNL1 0
57 C9 5.59693 -9.64622 2.32565 C.3 3 UNL1 0
58 C10 4.07663 -9.43121 2.18555 C.3 3 UNL1 0
59 O4 4.6441 -7.08138 1.67855 O.3 3 UNL1 0
60 C11 3.82778 -8.26187 1.21414 C.3 3 UNL1 0
61 H1 6.83829 -10.8466 3.31268 H 3 UNL1 0
62 H2 7.47756 -12.595 3.31757 H 3 UNL1 0
63 H3 8.58916 -11.196 3.8399 H 3 UNL1 0
64 H4 10.1672 -10.5011 2.28396 H 3 UNL1 0
65 H5 10.1238 -11.2284 0.570346 H 3 UNL1 0
66 H6 12.0758 -12.6164 1.005 H 3 UNL1 0
67 H7 12.1351 -13.7203 2.50269 H 3 UNL1 0
68 H8 12.1568 -11.5646 4.03939 H 3 UNL1 0
69 H9 14.1878 -11.5658 1.54009 H 3 UNL1 0
70 H10 14.4339 -10.9607 3.36152 H 3 UNL1 0
71 H11 8.11804 -13.4888 1.23662 H 3 UNL1 0
72 H12 8.01951 -12.3759 -0.252512 H 3 UNL1 0
73 H13 6.5569 -12.5365 0.887914 H 3 UNL1 0
74 H14 8.15984 -9.91202 0.00681195 H 3 UNL1 0
75 H15 8.09384 -9.13708 1.69 H 3 UNL1 0
76 H16 6.06937 -8.71236 2.77765 H 3 UNL1 0
77 H17 5.78304 -10.5343 3.01583 H 3 UNL1 0
78 H18 3.63038 -9.18281 3.20474 H 3 UNL1 0
79 H19 2.72102 -7.98858 1.21784 H 3 UNL1 0
80 H20 4.14423 -8.56758 0.162476 H 3 UNL1 0
81 H 3.59449 -10.3807 1.77851 H 3 UNL1 0
@<TRIPOS>BOND
1 1 2 1
2 1 4 1
3 1 5 1
4 2 3 1
5 3 6 1
6 3 7 1
7 2 8 1
8 1 9 1
9 3 10 1
10 12 13 1
11 12 19 1
12 12 20 1
13 13 14 1
14 13 29 1
15 13 30 1
16 14 15 1
17 15 16 1
18 15 31 1
19 15 32 1
20 16 18 1
21 17 18 1
22 18 33 1
23 18 34 1
24 19 35 1
25 19 36 1
26 19 37 1
27 20 21 1
28 20 38 1
29 20 39 1
30 21 22 1
31 22 23 1
32 22 40 1
33 22 41 1
34 23 24 1
35 23 25 1
36 23 42 1
37 24 25 1
38 25 43 1
39 25 44 1
40 11 27 1
41 11 26 1
42 11 12 1
43 11 28 1
44 16 45 1
45 17 2 1
46 47 48 1
47 47 54 1
48 47 55 1
49 48 49 1
50 48 64 1
51 48 65 1
52 49 50 1
53 50 51 1
54 50 66 1
55 50 67 1
56 51 52 1
57 51 53 1
58 51 68 1
59 52 53 1
60 53 69 1
61 53 70 1
62 54 71 1
63 54 72 1
64 54 73 1
65 55 56 1
66 55 74 1
67 55 75 1
68 56 57 1
69 57 58 1
70 57 76 1
71 57 77 1
72 58 60 1
73 58 78 1
74 59 60 1
75 60 79 1
76 60 80 1
77 46 62 1
78 46 61 1
79 46 47 1
80 46 63 1
81 58 81 1
82 59 16 1
@<TRIPOS>SUBSTRUCTURE
1 UNL1 1 **** **** C3H7
2 UNL1 11 **** **** C11H
3 UNL1 46 **** **** C110
