# Mol2 file generated by Materials Studio
@<TRIPOS>MOLECULE
"mol_ED-523T"
81 82 3 0 0 
SMALL
USER_CHARGES


@<TRIPOS>ATOM
1 C4 3.20605 -2.43704 -0.779744 C.3 1 UNL1 0
2 C5 4.47705 -1.94233 -0.0524954 C.3 1 UNL1 0
3 C6 4.82715 -0.465461 -0.322494 C.3 1 UNL1 0
4 H6 3.11382 -3.56673 -0.657715 H 1 UNL1 0
5 H7 3.2776 -2.17911 -1.88787 H 1 UNL1 0
6 H9 5.12756 -0.339743 -1.41499 H 1 UNL1 0
7 H10 5.69372 -0.15157 0.348433 H 1 UNL1 0
8 H 4.35129 -2.09843 1.06974 H 1 UNL1 0
9 H 2.28931 -1.93015 -0.330022 H 1 UNL1 0
10 H 3.91908 0.18704 -0.100583 H 1 UNL1 0
11 C1 0.24619 -6.34491 0.242493 C.3 2 UNL1 0
12 C2 0.496997 -5.58751 -1.07429 C.3 2 UNL1 0
13 C3 1.94681 -5.07674 -1.12454 C.3 2 UNL1 0
14 O1 2.97062 -6.18264 -1.16859 O.3 2 UNL1 0
15 C4 4.29862 -5.46652 -1.14065 C.3 2 UNL1 0
16 C5 4.48369 -4.86444 0.263918 C.3 2 UNL1 0
17 O2 5.64495 -2.76996 -0.541747 O.3 2 UNL1 0
18 C6 5.76171 -4.00755 0.320236 C.3 2 UNL1 0
19 C7 0.214769 -6.51717 -2.26852 C.3 2 UNL1 0
20 C8 -0.377372 -4.32593 -1.18576 C.3 2 UNL1 0
21 O3 -1.86412 -4.5833 -1.18881 O.3 2 UNL1 0
22 C9 -2.35842 -4.94049 0.190958 C.3 2 UNL1 0
23 C10 -3.89577 -4.98721 0.137855 C.3 2 UNL1 0
24 O4 -4.51277 -5.43259 -1.15676 O.3 2 UNL1 0
25 C11 -4.54343 -3.95505 -0.801173 C.3 2 UNL1 0
26 H1 -0.744391 -6.00561 0.693293 H 2 UNL1 0
27 H2 0.205259 -7.46507 0.034707 H 2 UNL1 0
28 H3 1.092 -6.12487 0.974471 H 2 UNL1 0
29 H4 2.14139 -4.43244 -0.204419 H 2 UNL1 0
30 H5 2.09263 -4.43822 -2.05761 H 2 UNL1 0
31 H6 4.30331 -4.63421 -1.91965 H 2 UNL1 0
32 H7 5.13499 -6.20801 -1.36489 H 2 UNL1 0
33 H8 4.56129 -5.70716 1.02772 H 2 UNL1 0
34 H9 6.645 -4.63132 -0.040755 H 2 UNL1 0
35 H10 5.95188 -3.67901 1.39518 H 2 UNL1 0
36 H11 0.652371 -7.54873 -2.05878 H 2 UNL1 0
37 H12 0.694152 -6.08491 -3.20817 H 2 UNL1 0
38 H13 -0.911206 -6.60627 -2.42293 H 2 UNL1 0
39 H14 -0.102265 -3.7778 -2.14673 H 2 UNL1 0
40 H15 -0.165469 -3.63744 -0.302199 H 2 UNL1 0
41 H16 -2.02223 -4.14794 0.938245 H 2 UNL1 0
42 H17 -1.9405 -5.95724 0.492919 H 2 UNL1 0
43 H18 -4.44893 -5.24359 1.10112 H 2 UNL1 0
44 H19 -3.82678 -3.28407 -1.38066 H 2 UNL1 0
45 H20 -5.3955 -3.42829 -0.257026 H 2 UNL1 0
46 H 3.58672 -4.208 0.517176 H 2 UNL1 0
47 C1 8.32841 -12.1787 3.43268 C.3 3 UNL1 0
48 C2 8.46641 -11.5797 2.06268 C.3 3 UNL1 0
49 C3 9.97141 -11.3357 1.83568 C.3 3 UNL1 0
50 O1 10.5734 -12.5727 1.93368 O.3 3 UNL1 0
51 C4 11.9274 -12.5957 1.76068 C.3 3 UNL1 0
52 C5 12.7324 -11.7867 2.71768 C.3 3 UNL1 0
53 O2 12.5634 -10.4177 2.82568 O.3 3 UNL1 0
54 C6 13.6514 -10.7607 2.06568 C.3 3 UNL1 0
55 C7 7.99341 -12.6107 1.01968 C.3 3 UNL1 0
56 C8 7.69141 -10.3317 1.82068 C.3 3 UNL1 0
57 O3 6.33941 -10.3717 1.91468 O.3 3 UNL1 0
58 C9 5.73741 -10.7347 3.06668 C.3 3 UNL1 0
59 C10 4.21741 -10.6077 2.86668 C.3 3 UNL1 0
60 O4 3.81741 -11.5097 1.75468 O.3 3 UNL1 0
61 C11 3.72641 -10.0997 1.62168 C.3 3 UNL1 0
62 H1 7.56073 -11.5854 4.03125 H 3 UNL1 0
63 H2 7.9843 -13.2617 3.34102 H 3 UNL1 0
64 H3 9.33542 -12.1438 3.96588 H 3 UNL1 0
65 H4 10.3798 -10.6374 2.63893 H 3 UNL1 0
66 H5 10.1309 -10.8796 0.803168 H 3 UNL1 0
67 H6 12.1587 -12.2342 0.704567 H 3 UNL1 0
68 H7 12.3054 -13.6664 1.8625 H 3 UNL1 0
69 H8 13.1365 -12.3286 3.63563 H 3 UNL1 0
70 H9 13.5432 -10.6286 0.938549 H 3 UNL1 0
71 H10 14.7125 -10.8964 2.45965 H 3 UNL1 0
72 H11 8.38665 -13.6432 1.30055 H 3 UNL1 0
73 H12 8.38979 -12.32 -0.00888759 H 3 UNL1 0
74 H13 6.85385 -12.6317 0.995764 H 3 UNL1 0
75 H14 7.9575 -9.95241 0.779088 H 3 UNL1 0
76 H15 8.00797 -9.53591 2.57305 H 3 UNL1 0
77 H16 6.07346 -10.0455 3.91028 H 3 UNL1 0
78 H17 6.01372 -11.8121 3.31676 H 3 UNL1 0
79 H18 3.54763 -10.5427 3.78688 H 3 UNL1 0
80 H19 4.50475 -9.61584 0.943721 H 3 UNL1 0
81 H20 2.78282 -9.48736 1.80675 H 3 UNL1 0
@<TRIPOS>BOND
1 1 2 1
2 1 4 1
3 1 5 1
4 2 3 1
5 3 6 1
6 3 7 1
7 2 8 1
8 1 9 1
9 3 10 1
10 12 13 1
11 12 19 1
12 12 20 1
13 13 14 1
14 13 29 1
15 13 30 1
16 14 15 1
17 15 16 1
18 15 31 1
19 15 32 1
20 16 18 1
21 16 33 1
22 17 18 1
23 18 34 1
24 18 35 1
25 19 36 1
26 19 37 1
27 19 38 1
28 20 21 1
29 20 39 1
30 20 40 1
31 21 22 1
32 22 23 1
33 22 41 1
34 22 42 1
35 23 24 1
36 23 25 1
37 23 43 1
38 24 25 1
39 25 44 1
40 25 45 1
41 11 27 1
42 11 26 1
43 11 12 1
44 11 28 1
45 16 46 1
46 17 2 1
47 48 49 1
48 48 55 1
49 48 56 1
50 49 50 1
51 49 65 1
52 49 66 1
53 50 51 1
54 51 52 1
55 51 67 1
56 51 68 1
57 52 53 1
58 52 54 1
59 52 69 1
60 53 54 1
61 54 70 1
62 54 71 1
63 55 72 1
64 55 73 1
65 55 74 1
66 56 57 1
67 56 75 1
68 56 76 1
69 57 58 1
70 58 59 1
71 58 77 1
72 58 78 1
73 59 60 1
74 59 61 1
75 59 79 1
76 60 61 1
77 61 80 1
78 61 81 1
79 47 63 1
80 47 62 1
81 47 48 1
82 47 64 1
@<TRIPOS>SUBSTRUCTURE
1 UNL1 1 **** **** C3H7
2 UNL1 11 **** **** C11H
3 UNL1 47 **** **** C110
