# Mol2 file generated by Materials Studio
@<TRIPOS>MOLECULE
mol_XY630
128 133 3 0 0 
SMALL
USER_CHARGES


@<TRIPOS>ATOM
1 C1 3.77188 -0.573087 3.28196 C.3 1 UNL1 0
2 C2 4.31437 -0.00478317 4.60645 C.3 1 UNL1 0
3 O1 5.39281 -0.919099 5.13415 O.3 1 UNL1 0
4 C3 6.3212 -1.14407 3.96732 C.3 1 UNL1 0
5 C4 6.55946 0.223449 3.30387 C.3 1 UNL1 0
6 C5 7.28122 1.17602 4.27394 C.3 1 UNL1 0
7 O2 7.46711 2.52565 3.62327 O.3 1 UNL1 0
8 C6 2.75337 0.41794 2.69128 C.3 1 UNL1 0
9 C7 1.6177 0.627831 3.70781 C.3 1 UNL1 0
10 C8 0.926552 -0.719755 3.97486 C.3 1 UNL1 0
11 C9 -0.222081 -0.49703 4.97374 C.3 1 UNL1 0
12 O3 -1.14637 0.544752 4.39371 O.3 1 UNL1 0
13 C10 -1.51909 0.121453 2.99425 C.3 1 UNL1 0
14 C11 -2.17983 -1.26736 3.05026 C.3 1 UNL1 0
15 O4 -3.1616 -1.59199 1.96157 O.3 1 UNL1 0
16 C12 -3.6867 -1.2833 3.35471 C.3 1 UNL1 0
17 C13 1.94268 -1.72283 4.553 C.3 1 UNL1 0
18 C14 3.09174 -1.92755 3.5485 C.3 1 UNL1 0
19 H1 4.63039 -0.710356 2.54408 H 1 UNL1 0
20 H2 4.7776 1.01574 4.39708 H 1 UNL1 0
21 H3 3.4705 0.104402 5.36543 H 1 UNL1 0
22 H4 5.79735 -1.82139 3.2149 H 1 UNL1 0
23 H5 7.30047 -1.62158 4.30256 H 1 UNL1 0
24 H7 8.29915 0.740136 4.54545 H 1 UNL1 0
25 H8 6.65372 1.29336 5.21863 H 1 UNL1 0
26 H9 3.26859 1.4143 2.4871 H 1 UNL1 0
27 H10 2.3295 0.00144983 1.71827 H 1 UNL1 0
28 H11 0.857364 1.36473 3.28528 H 1 UNL1 0
29 H12 2.04815 1.03656 4.68108 H 1 UNL1 0
30 H13 0.501203 -1.12086 2.996 H 1 UNL1 0
31 H14 0.190148 -0.126399 5.97015 H 1 UNL1 0
32 H15 -0.783971 -1.47731 5.12821 H 1 UNL1 0
33 H16 -0.578181 0.0670337 2.35202 H 1 UNL1 0
34 H17 -2.24669 0.875419 2.54475 H 1 UNL1 0
35 H18 -1.60567 -2.15579 3.47512 H 1 UNL1 0
36 H19 -4.31934 -0.344398 3.22279 H 1 UNL1 0
37 H20 -4.20847 -2.24066 3.68718 H 1 UNL1 0
38 H21 1.42641 -2.71901 4.75352 H 1 UNL1 0
39 H22 2.3655 -1.30887 5.52726 H 1 UNL1 0
40 H23 2.67687 -2.34472 2.57172 H 1 UNL1 0
41 H24 3.85378 -2.65645 3.98211 H 1 UNL1 0
42 H 5.54195 0.660293 3.03375 H 1 UNL1 0
43 H 7.98721 3.2071 4.32859 H 1 UNL1 0
44 C1 3.79002 0.224076 -2.06857 C.3 2 UNL1 0
45 C2 4.38499 0.826283 -0.78471 C.3 2 UNL1 0
46 O1 5.16496 -0.236935 -0.0533195 O.3 2 UNL1 0
47 C3 6.56913 -0.391669 -0.585525 C.3 2 UNL1 0
48 C4 7.30946 0.926805 -0.297196 C.3 2 UNL1 0
49 C5 7.01194 1.25345 1.17397 C.3 2 UNL1 0
50 O2 7.33076 0.046794 2.02064 O.3 2 UNL1 0
51 C6 2.89019 1.27601 -2.74148 C.3 2 UNL1 0
52 C7 1.83851 1.74532 -1.71864 C.3 2 UNL1 0
53 C8 0.989435 0.55337 -1.23913 C.3 2 UNL1 0
54 C9 -0.0152155 1.04401 -0.180429 C.3 2 UNL1 0
55 O3 -0.928332 2.07275 -0.801268 O.3 2 UNL1 0
56 C10 -1.71872 1.39808 -1.89525 C.3 2 UNL1 0
57 C11 -2.50793 0.231685 -1.27196 C.3 2 UNL1 0
58 O4 -3.83368 -0.120779 -1.88431 O.3 2 UNL1 0
59 C12 -3.81278 0.628673 -0.561844 C.3 2 UNL1 0
60 C13 1.90614 -0.507934 -0.604803 C.3 2 UNL1 0
61 C14 2.94133 -0.985429 -1.63924 C.3 2 UNL1 0
62 H1 4.61152 -0.111436 -2.78438 H 2 UNL1 0
63 H2 5.04892 1.72431 -1.01473 H 2 UNL1 0
64 H3 3.51497 1.15337 -0.123862 H 2 UNL1 0
65 H4 6.58363 -0.638407 -1.69836 H 2 UNL1 0
66 H5 7.07143 -1.22876 0.00303502 H 2 UNL1 0
67 H7 5.89175 1.44707 1.26366 H 2 UNL1 0
68 H8 7.58782 2.17487 1.51914 H 2 UNL1 0
69 H9 3.52127 2.16762 -3.067 H 2 UNL1 0
70 H10 2.37754 0.817893 -3.65089 H 2 UNL1 0
71 H11 1.15911 2.5275 -2.19454 H 2 UNL1 0
72 H12 2.37453 2.2024 -0.822135 H 2 UNL1 0
73 H13 0.431437 0.0978534 -2.12274 H 2 UNL1 0
74 H14 0.552093 1.51032 0.691501 H 2 UNL1 0
75 H15 -0.636893 0.165934 0.19684 H 2 UNL1 0
76 H16 -1.0073 0.9973 -2.69066 H 2 UNL1 0
77 H17 -2.43981 2.14594 -2.36397 H 2 UNL1 0
78 H18 -1.9523 -0.616492 -0.750904 H 2 UNL1 0
79 H19 -4.32661 1.62077 -0.789339 H 2 UNL1 0
80 H20 -4.31562 -0.078881 0.17752 H 2 UNL1 0
81 H21 1.27802 -1.39164 -0.252704 H 2 UNL1 0
82 H22 2.45357 -0.0506894 0.284653 H 2 UNL1 0
83 H23 2.41864 -1.43877 -2.54497 H 2 UNL1 0
84 H24 3.61746 -1.76549 -1.15588 H 2 UNL1 0
85 H 6.90429 1.76864 -0.950353 H 2 UNL1 0
86 C1 17.7416 0.396679 -0.225818 C.3 3 UNL1 0
87 C2 17.7642 1.31727 1.00556 C.3 3 UNL1 0
88 O1 18.37 0.542589 2.14944 O.3 3 UNL1 0
89 C3 19.6056 -0.19905 1.69127 C.3 3 UNL1 0
90 C4 20.6975 0.743702 1.14811 C.3 3 UNL1 0
91 C5 20.7099 2.17739 1.7015 C.3 3 UNL1 0
92 O2 20.2744 1.88924 0.273936 O.3 3 UNL1 0
93 C6 17.1308 1.15433 -1.41735 C.3 3 UNL1 0
94 C7 15.6916 1.57486 -1.06815 C.3 3 UNL1 0
95 C8 14.8614 0.311667 -0.777526 C.3 3 UNL1 0
96 C9 13.3966 0.694905 -0.498337 C.3 3 UNL1 0
97 O3 12.8665 1.45396 -1.69119 O.3 3 UNL1 0
98 C10 11.3636 1.55723 -1.60466 C.3 3 UNL1 0
99 C11 10.9511 2.03451 -0.201915 C.3 3 UNL1 0
100 O4 8.7998 0.788396 -0.488405 O.3 3 UNL1 0
101 C12 9.41569 2.12345 -0.141769 C.3 3 UNL1 0
102 C13 15.4605 -0.428396 0.43262 C.3 3 UNL1 0
103 C14 16.9017 -0.852023 0.0961986 C.3 3 UNL1 0
104 H1 18.8081 0.0810828 -0.476777 H 3 UNL1 0
105 H2 18.3977 2.23654 0.778099 H 3 UNL1 0
106 H3 16.7047 1.64369 1.27287 H 3 UNL1 0
107 H4 19.3168 -0.940125 0.874542 H 3 UNL1 0
108 H5 20.0297 -0.772175 2.5806 H 3 UNL1 0
109 H6 21.7108 0.314502 0.850276 H 3 UNL1 0
110 H7 21.6332 2.83808 1.59957 H 3 UNL1 0
111 H8 19.7852 2.61214 2.20666 H 3 UNL1 0
112 H9 17.7576 2.07973 -1.64067 H 3 UNL1 0
113 H10 17.1149 0.474335 -2.33214 H 3 UNL1 0
114 H11 15.2363 2.13272 -1.95229 H 3 UNL1 0
115 H12 15.6974 2.25188 -0.150555 H 3 UNL1 0
116 H13 14.8908 -0.368632 -1.69173 H 3 UNL1 0
117 H14 13.326 1.35038 0.43206 H 3 UNL1 0
118 H15 12.7877 -0.255889 -0.341832 H 3 UNL1 0
119 H16 10.9059 0.528715 -1.78519 H 3 UNL1 0
120 H17 10.9829 2.28534 -2.39513 H 3 UNL1 0
121 H18 11.4052 3.05794 0.0117268 H 3 UNL1 0
122 H19 9.05006 2.90194 -0.889631 H 3 UNL1 0
123 H20 9.09529 2.42785 0.909217 H 3 UNL1 0
124 H21 14.8375 -1.35509 0.660917 H 3 UNL1 0
125 H22 15.4645 0.263321 1.33875 H 3 UNL1 0
126 H23 16.8902 -1.54522 -0.808788 H 3 UNL1 0
127 H24 17.3595 -1.39606 0.987643 H 3 UNL1 0
128 H 11.323 1.28296 0.570481 H 3 UNL1 0
@<TRIPOS>BOND
1 2 3 1
2 2 20 1
3 2 21 1
4 3 4 1
5 4 5 1
6 4 22 1
7 4 23 1
8 5 6 1
9 6 7 1
10 6 24 1
11 6 25 1
12 8 9 1
13 8 26 1
14 8 27 1
15 9 10 1
16 9 28 1
17 9 29 1
18 10 11 1
19 10 17 1
20 10 30 1
21 11 12 1
22 11 31 1
23 11 32 1
24 12 13 1
25 13 14 1
26 13 33 1
27 13 34 1
28 14 15 1
29 14 16 1
30 14 35 1
31 15 16 1
32 16 36 1
33 16 37 1
34 17 18 1
35 17 38 1
36 17 39 1
37 18 40 1
38 18 41 1
39 1 19 1
40 1 8 1
41 1 2 1
42 1 18 1
43 5 42 1
44 7 43 1
45 45 46 1
46 45 63 1
47 45 64 1
48 46 47 1
49 47 48 1
50 47 65 1
51 47 66 1
52 48 49 1
53 49 50 1
54 49 67 1
55 49 68 1
56 51 52 1
57 51 69 1
58 51 70 1
59 52 53 1
60 52 71 1
61 52 72 1
62 53 54 1
63 53 60 1
64 53 73 1
65 54 55 1
66 54 74 1
67 54 75 1
68 55 56 1
69 56 57 1
70 56 76 1
71 56 77 1
72 57 58 1
73 57 59 1
74 57 78 1
75 58 59 1
76 59 79 1
77 59 80 1
78 60 61 1
79 60 81 1
80 60 82 1
81 61 83 1
82 61 84 1
83 44 62 1
84 44 51 1
85 44 45 1
86 44 61 1
87 48 85 1
88 5 50 1
89 87 88 1
90 87 105 1
91 87 106 1
92 88 89 1
93 89 90 1
94 89 107 1
95 89 108 1
96 90 91 1
97 90 92 1
98 90 109 1
99 91 92 1
100 91 110 1
101 91 111 1
102 93 94 1
103 93 112 1
104 93 113 1
105 94 95 1
106 94 114 1
107 94 115 1
108 95 96 1
109 95 102 1
110 95 116 1
111 96 97 1
112 96 117 1
113 96 118 1
114 97 98 1
115 98 99 1
116 98 119 1
117 98 120 1
118 99 101 1
119 99 121 1
120 100 101 1
121 101 122 1
122 101 123 1
123 102 103 1
124 102 124 1
125 102 125 1
126 103 126 1
127 103 127 1
128 86 104 1
129 86 93 1
130 86 87 1
131 86 103 1
132 99 128 1
133 100 48 1
@<TRIPOS>SUBSTRUCTURE
1 UNL1 1 **** **** C14H
2 UNL1 44 **** **** C140
3 UNL1 86 **** **** C141
