# Mol2 file generated by Materials Studio
@<TRIPOS>MOLECULE
mol_XY630
128 133 3 0 0 
SMALL
USER_CHARGES


@<TRIPOS>ATOM
1 C1 4.02419 -1.11026 2.88383 C.3 1 UNL1 0
2 C2 4.97891 -0.15116 3.61031 C.3 1 UNL1 0
3 O1 6.18446 -0.887859 4.12835 O.3 1 UNL1 0
4 C3 6.77297 -1.74986 3.0362 C.3 1 UNL1 0
5 C4 6.90722 -0.970884 1.43254 C.3 1 UNL1 0
6 C5 7.63819 0.47721 2.12679 C.3 1 UNL1 0
7 O2 6.89879 1.69996 1.63626 O.3 1 UNL1 0
8 C6 2.94578 -0.210199 2.26478 C.3 1 UNL1 0
9 C7 2.1167 0.479336 3.35523 C.3 1 UNL1 0
10 C8 1.43181 -0.621333 4.17457 C.3 1 UNL1 0
11 C9 0.487315 0.070777 5.1681 C.3 1 UNL1 0
12 O3 -0.401124 0.971858 4.344 O.3 1 UNL1 0
13 C10 -0.816536 0.241455 3.0888 C.3 1 UNL1 0
14 C11 -1.5184 -1.07427 3.46809 C.3 1 UNL1 0
15 O4 -2.45564 -1.64014 2.43997 O.3 1 UNL1 0
16 C12 -3.03812 -0.997538 3.68845 C.3 1 UNL1 0
17 C13 2.50987 -1.46487 4.88153 C.3 1 UNL1 0
18 C14 3.38305 -2.15685 3.81643 C.3 1 UNL1 0
19 H1 4.59039 -1.64527 2.0515 H 1 UNL1 0
20 H2 5.31765 0.661786 2.88644 H 1 UNL1 0
21 H3 4.42368 0.329555 4.48221 H 1 UNL1 0
22 H4 6.13087 -2.68582 2.92997 H 1 UNL1 0
23 H5 7.82779 -2.06744 3.32962 H 1 UNL1 0
24 H7 8.73104 0.541008 1.80865 H 1 UNL1 0
25 H8 7.57587 0.426495 3.26396 H 1 UNL1 0
26 H9 3.44555 0.582402 1.61546 H 1 UNL1 0
27 H10 2.26196 -0.850938 1.6156 H 1 UNL1 0
28 H11 1.32982 1.15068 2.87596 H 1 UNL1 0
29 H12 2.80385 1.10193 4.01841 H 1 UNL1 0
30 H13 0.824961 -1.28941 3.47815 H 1 UNL1 0
31 H14 1.08929 0.6905 5.91185 H 1 UNL1 0
32 H15 -0.125207 -0.715762 5.72107 H 1 UNL1 0
33 H16 0.106137 0.012153 2.45975 H 1 UNL1 0
34 H17 -1.53278 0.894411 2.4886 H 1 UNL1 0
35 H18 -0.933125 -1.8148 4.10736 H 1 UNL1 0
36 H19 -3.51451 0.0287703 3.54938 H 1 UNL1 0
37 H20 -3.31177 -1.55262 4.64585 H 1 UNL1 0
38 H21 2.00944 -2.25316 5.53557 H 1 UNL1 0
39 H22 3.15831 -0.787155 5.52947 H 1 UNL1 0
40 H23 2.73593 -2.86479 3.20026 H 1 UNL1 0
41 H24 4.20891 -2.75166 4.33001 H 1 UNL1 0
42 H 5.85312 -0.539783 1.48377 H 1 UNL1 0
43 H 7.31799 2.60558 2.12229 H 1 UNL1 0
44 C1 1.60022 0.193722 -1.86429 C.3 2 UNL1 0
45 C2 2.46951 1.2278 -1.13175 C.3 2 UNL1 0
46 O1 3.32168 0.473645 -0.14241 O.3 2 UNL1 0
47 C3 4.08102 -0.651278 -0.798106 C.3 2 UNL1 0
48 C4 5.1483 -0.0224916 -1.70539 C.3 2 UNL1 0
49 C5 6.25994 0.619457 -0.848541 C.3 2 UNL1 0
50 O2 7.15181 -0.431837 -0.220757 O.3 2 UNL1 0
51 C6 0.62326 0.925956 -2.80199 C.3 2 UNL1 0
52 C7 -0.297944 1.83629 -1.96834 C.3 2 UNL1 0
53 C8 -1.08527 0.968686 -0.969716 C.3 2 UNL1 0
54 C9 -2.07185 1.84684 -0.180281 C.3 2 UNL1 0
55 O3 -2.94835 2.5593 -1.18106 O.3 2 UNL1 0
56 C10 -3.38875 1.5675 -2.23083 C.3 2 UNL1 0
57 C11 -4.16917 0.407894 -1.58557 C.3 2 UNL1 0
58 O4 -5.05655 -0.362106 -2.52335 O.3 2 UNL1 0
59 C12 -5.69731 0.555342 -1.49536 C.3 2 UNL1 0
60 C13 -0.1078 0.269657 -0.00666465 C.3 2 UNL1 0
61 C14 0.826012 -0.639833 -0.826166 C.3 2 UNL1 0
62 H1 2.26932 -0.494943 -2.47882 H 2 UNL1 0
63 H2 3.13532 1.7729 -1.87952 H 2 UNL1 0
64 H3 1.81639 1.97883 -0.575863 H 2 UNL1 0
65 H4 3.36854 -1.28535 -1.42255 H 2 UNL1 0
66 H5 4.57073 -1.29715 0.0035376 H 2 UNL1 0
67 H6 4.66557 0.776938 -2.35921 H 2 UNL1 0
68 H7 5.78207 1.24503 -0.0239845 H 2 UNL1 0
69 H8 6.90336 1.29431 -1.50442 H 2 UNL1 0
70 H9 1.21173 1.55872 -3.54558 H 2 UNL1 0
71 H10 -0.00719946 0.162649 -3.36722 H 2 UNL1 0
72 H11 -1.02499 2.37879 -2.65878 H 2 UNL1 0
73 H12 0.332571 2.59913 -1.40254 H 2 UNL1 0
74 H13 -1.67017 0.177267 -1.54517 H 2 UNL1 0
75 H14 -1.49692 2.61005 0.44147 H 2 UNL1 0
76 H15 -2.70305 1.18862 0.503764 H 2 UNL1 0
77 H16 -2.47128 1.15256 -2.7653 H 2 UNL1 0
78 H17 -4.06179 2.08972 -2.98839 H 2 UNL1 0
79 H18 -3.64903 -0.177163 -0.756862 H 2 UNL1 0
80 H19 -6.13201 1.53064 -1.89464 H 2 UNL1 0
81 H20 -6.04941 0.235759 -0.459269 H 2 UNL1 0
82 H21 -0.6932 -0.359113 0.742705 H 2 UNL1 0
83 H22 0.504979 1.05437 0.54861 H 2 UNL1 0
84 H23 0.206473 -1.43179 -1.36336 H 2 UNL1 0
85 H24 1.56839 -1.15031 -0.127673 H 2 UNL1 0
86 H 5.60557 -0.828592 -2.36925 H 2 UNL1 0
87 C1 18.4073 0.765157 0.739631 C.3 3 UNL1 0
88 C2 19.5543 1.65016 1.25663 C.3 3 UNL1 0
89 O1 20.4533 0.933157 1.99363 O.3 3 UNL1 0
90 C3 21.0873 -0.100843 1.36963 C.3 3 UNL1 0
91 C4 21.9383 0.229157 0.197631 C.3 3 UNL1 0
92 C5 22.4373 1.49016 -0.216369 C.3 3 UNL1 0
93 O2 21.3473 0.874157 -0.914369 O.3 3 UNL1 0
94 C6 17.5033 1.66416 -0.0423691 C.3 3 UNL1 0
95 C7 16.4953 2.38816 0.820631 C.3 3 UNL1 0
96 C8 15.6483 1.30316 1.46263 C.3 3 UNL1 0
97 C9 14.4613 1.86416 2.18263 C.3 3 UNL1 0
98 O3 13.6543 2.56116 1.30963 O.3 3 UNL1 0
99 C10 13.1493 1.83016 0.264631 C.3 3 UNL1 0
100 C11 12.2883 0.654157 0.731631 C.3 3 UNL1 0
101 O4 11.7863 -0.0728426 -0.413369 O.3 3 UNL1 0
102 C12 10.8713 0.657157 0.418631 C.3 3 UNL1 0
103 C13 16.5603 0.596157 2.44163 C.3 3 UNL1 0
104 C14 17.7583 -0.00784255 1.82563 C.3 3 UNL1 0
105 H1 18.8813 0.0491574 0.0366309 H 3 UNL1 0
106 H2 19.9333 2.18516 0.388631 H 3 UNL1 0
107 H3 19.0363 2.34216 1.98863 H 3 UNL1 0
108 H4 20.3383 -0.917843 1.14263 H 3 UNL1 0
109 H5 21.7603 -0.581843 2.13563 H 3 UNL1 0
110 H6 22.4993 -0.687843 -0.174369 H 3 UNL1 0
111 H7 23.3333 1.50816 -0.907369 H 3 UNL1 0
112 H8 22.2793 2.46416 0.238631 H 3 UNL1 0
113 H9 18.1053 2.44816 -0.553369 H 3 UNL1 0
114 H10 16.9383 1.14416 -0.838369 H 3 UNL1 0
115 H11 17.0153 2.95316 1.64563 H 3 UNL1 0
116 H12 15.9173 3.06016 0.183631 H 3 UNL1 0
117 H13 15.3903 0.572157 0.684631 H 3 UNL1 0
118 H14 14.8253 2.60216 2.93663 H 3 UNL1 0
119 H15 13.9663 1.07016 2.74463 H 3 UNL1 0
120 H16 13.9053 1.41016 -0.424369 H 3 UNL1 0
121 H17 12.5003 2.47916 -0.362369 H 3 UNL1 0
122 H18 12.7393 0.0111574 1.51263 H 3 UNL1 0
123 H19 10.1863 -0.00784255 0.980631 H 3 UNL1 0
124 H20 10.4553 1.58216 -0.0413691 H 3 UNL1 0
125 H21 16.8383 1.30916 3.25063 H 3 UNL1 0
126 H22 15.9493 -0.194843 2.93463 H 3 UNL1 0
127 H23 18.5283 -0.161843 2.63763 H 3 UNL1 0
128 H24 17.4983 -1.05084 1.50263 H 3 UNL1 0
@<TRIPOS>BOND
1 2 3 1
2 2 20 1
3 2 21 1
4 3 4 1
5 4 5 1
6 4 22 1
7 4 23 1
8 5 6 1
9 6 7 1
10 6 24 1
11 6 25 1
12 8 9 1
13 8 26 1
14 8 27 1
15 9 10 1
16 9 28 1
17 9 29 1
18 10 11 1
19 10 17 1
20 10 30 1
21 11 12 1
22 11 31 1
23 11 32 1
24 12 13 1
25 13 14 1
26 13 33 1
27 13 34 1
28 14 15 1
29 14 16 1
30 14 35 1
31 15 16 1
32 16 36 1
33 16 37 1
34 17 18 1
35 17 38 1
36 17 39 1
37 18 40 1
38 18 41 1
39 1 19 1
40 1 8 1
41 1 2 1
42 1 18 1
43 5 42 1
44 7 43 1
45 45 46 1
46 45 63 1
47 45 64 1
48 46 47 1
49 47 48 1
50 47 65 1
51 47 66 1
52 48 49 1
53 48 67 1
54 49 50 1
55 49 68 1
56 49 69 1
57 51 52 1
58 51 70 1
59 51 71 1
60 52 53 1
61 52 72 1
62 52 73 1
63 53 54 1
64 53 60 1
65 53 74 1
66 54 55 1
67 54 75 1
68 54 76 1
69 55 56 1
70 56 57 1
71 56 77 1
72 56 78 1
73 57 58 1
74 57 59 1
75 57 79 1
76 58 59 1
77 59 80 1
78 59 81 1
79 60 61 1
80 60 82 1
81 60 83 1
82 61 84 1
83 61 85 1
84 44 62 1
85 44 51 1
86 44 45 1
87 44 61 1
88 48 86 1
89 5 50 1
90 88 89 1
91 88 106 1
92 88 107 1
93 89 90 1
94 90 91 1
95 90 108 1
96 90 109 1
97 91 92 1
98 91 93 1
99 91 110 1
100 92 93 1
101 92 111 1
102 92 112 1
103 94 95 1
104 94 113 1
105 94 114 1
106 95 96 1
107 95 115 1
108 95 116 1
109 96 97 1
110 96 103 1
111 96 117 1
112 97 98 1
113 97 118 1
114 97 119 1
115 98 99 1
116 99 100 1
117 99 120 1
118 99 121 1
119 100 101 1
120 100 102 1
121 100 122 1
122 101 102 1
123 102 123 1
124 102 124 1
125 103 104 1
126 103 125 1
127 103 126 1
128 104 127 1
129 104 128 1
130 87 105 1
131 87 94 1
132 87 88 1
133 87 104 1
@<TRIPOS>SUBSTRUCTURE
1 UNL1 1 **** **** C14H
2 UNL1 44 **** **** C140
3 UNL1 87 **** **** C141
