# Mol2 file generated by Materials Studio
@<TRIPOS>MOLECULE
mol_TCM104
101 103 3 0 0 
SMALL
USER_CHARGES


@<TRIPOS>ATOM
1 C1 -4.52252 -1.13839 -0.0855779 C.3 1 UNL1 0
2 C2 -3.72868 0.15968 -0.351084 C.3 1 UNL1 0
3 C3 -2.35704 0.338451 0.348224 C.3 1 UNL1 0
4 C4 -1.17428 -0.494533 -0.175576 C.3 1 UNL1 0
5 O1 0.152459 0.0597614 0.282029 O.3 1 UNL1 0
6 C5 1.19914 -0.871786 -0.283701 C.3 1 UNL1 0
7 C6 2.60411 -0.290477 -0.0526148 C.ar 1 UNL1 0
8 C7 3.8036 -1.23091 0.170451 C.ar 1 UNL1 0
9 C8 5.19932 -0.643211 0.448317 C.ar 1 UNL1 0
10 C9 5.39214 0.884181 0.511601 C.ar 1 UNL1 0
11 C10 4.18956 1.82338 0.298757 C.ar 1 UNL1 0
12 C11 2.79447 1.23516 0.0220831 C.ar 1 UNL1 0
13 C12 -2.51681 0.00666732 1.84369 C.3 1 UNL1 0
14 O2 -3.06472 2.70243 0.639073 O.3 1 UNL1 0
15 C13 -1.96914 1.80953 0.108838 C.3 1 UNL1 0
16 H1 -3.86362 -1.8781 0.478596 H 1 UNL1 0
17 H2 -4.84442 -1.59678 -1.07848 H 1 UNL1 0
18 H3 -5.44542 -0.898375 0.539118 H 1 UNL1 0
19 H4 -3.56291 0.245655 -1.47568 H 1 UNL1 0
20 H5 -4.42924 1.00144 -0.0344252 H 1 UNL1 0
21 H6 -1.2009 -0.503013 -1.31523 H 1 UNL1 0
22 H7 -1.26438 -1.56473 0.206732 H 1 UNL1 0
23 H8 1.02356 -1.0029 -1.40244 H 1 UNL1 0
24 H9 1.12421 -1.88565 0.232122 H 1 UNL1 0
25 H10 3.65737 -2.36075 0.129708 H 1 UNL1 0
26 H11 6.08907 -1.33801 0.607043 H 1 UNL1 0
27 H12 6.42539 1.32028 0.716075 H 1 UNL1 0
28 H13 4.33335 2.95328 0.346241 H 1 UNL1 0
29 H14 1.90232 1.9289 -0.127503 H 1 UNL1 0
30 H15 -3.28632 0.711353 2.30289 H 1 UNL1 0
31 H16 -1.51724 0.148241 2.37324 H 1 UNL1 0
32 H17 -1.83648 1.99166 -1.00867 H 1 UNL1 0
33 H18 -0.992561 2.03804 0.650765 H 1 UNL1 0
34 H -2.62532 3.46628 1.31403 H 1 UNL1 0
35 C1 -3.92462 -4.65242 2.23444 C.3 2 UNL1 0
36 C2 -3.81281 -3.95917 0.864765 C.3 2 UNL1 0
37 C3 -2.35562 -3.50209 0.689738 C.3 2 UNL1 0
38 C4 -1.41612 -4.71625 0.784243 C.3 2 UNL1 0
39 O1 -0.00634893 -4.18823 0.898786 O.3 2 UNL1 0
40 C5 0.892542 -5.3067 1.36864 C.3 2 UNL1 0
41 C6 2.22651 -4.73365 1.88215 C.ar 2 UNL1 0
42 C7 3.31546 -5.68738 2.39725 C.ar 2 UNL1 0
43 C8 4.62864 -5.13159 2.97037 C.ar 2 UNL1 0
44 C9 4.85913 -3.61338 3.03106 C.ar 2 UNL1 0
45 C10 3.77966 -2.65328 2.49176 C.ar 2 UNL1 0
46 C11 2.46123 -3.21298 1.91611 C.ar 2 UNL1 0
47 C12 -1.97328 -2.5537 1.85501 C.3 2 UNL1 0
48 O2 -2.97108 -1.42789 2.04746 O.3 2 UNL1 0
49 C13 -2.20544 -2.79491 -0.671019 C.3 2 UNL1 0
50 H1 -4.27473 -5.7275 2.08874 H 2 UNL1 0
51 H2 -4.67631 -4.09263 2.88344 H 2 UNL1 0
52 H3 -2.90564 -4.65057 2.74558 H 2 UNL1 0
53 H4 -4.08849 -4.69344 0.0374483 H 2 UNL1 0
54 H5 -4.50311 -3.05295 0.821642 H 2 UNL1 0
55 H6 -1.51442 -5.35492 -0.154922 H 2 UNL1 0
56 H7 -1.68641 -5.3353 1.70256 H 2 UNL1 0
57 H8 1.09565 -6.0181 0.501313 H 2 UNL1 0
58 H9 0.380555 -5.87648 2.21293 H 2 UNL1 0
59 H10 3.15193 -6.81482 2.35569 H 2 UNL1 0
60 H11 5.43196 -5.84555 3.35056 H 2 UNL1 0
61 H12 5.82532 -3.20078 3.47358 H 2 UNL1 0
62 H13 3.95424 -1.52702 2.51755 H 2 UNL1 0
63 H14 1.66278 -2.50393 1.51695 H 2 UNL1 0
64 H15 -0.946459 -2.10536 1.64471 H 2 UNL1 0
65 H16 -1.92534 -3.14669 2.82747 H 2 UNL1 0
66 H17 -1.09108 -2.6913 -0.887955 H 2 UNL1 0
67 H -2.64582 -1.7455 -0.604549 H 2 UNL1 0
68 C1 -5.0481 -4.46255 -3.27772 C.3 3 UNL1 0
69 C2 -5.1778 -3.08508 -3.95365 C.3 3 UNL1 0
70 C3 -3.78797 -2.41745 -4.04397 C.3 3 UNL1 0
71 C4 -2.82504 -3.25771 -4.90039 C.3 3 UNL1 0
72 O1 -1.53505 -2.47773 -4.96024 O.3 3 UNL1 0
73 C5 -0.498081 -3.20786 -5.77945 C.3 3 UNL1 0
74 C6 0.822294 -2.41645 -5.68757 C.ar 3 UNL1 0
75 C7 2.17233 -3.15629 -5.5986 C.ar 3 UNL1 0
76 C8 3.47761 -2.35781 -5.40902 C.ar 3 UNL1 0
77 C9 3.43094 -0.824131 -5.27849 C.ar 3 UNL1 0
78 C10 2.08028 -0.0879818 -5.3446 C.ar 3 UNL1 0
79 C11 0.776282 -0.886273 -5.53213 C.ar 3 UNL1 0
80 C12 -3.98367 -1.06588 -4.74748 C.3 3 UNL1 0
81 O2 -2.85697 -3.39932 -1.88928 O.3 3 UNL1 0
82 C13 -3.12546 -2.13864 -2.67638 C.3 3 UNL1 0
83 H1 -5.31399 -5.27988 -4.02664 H 3 UNL1 0
84 H2 -5.75804 -4.51733 -2.38745 H 3 UNL1 0
85 H3 -3.97624 -4.61022 -2.91866 H 3 UNL1 0
86 H4 -5.60475 -3.21587 -5.00256 H 3 UNL1 0
87 H5 -5.87649 -2.42653 -3.33904 H 3 UNL1 0
88 H6 -3.25021 -3.39086 -5.94973 H 3 UNL1 0
89 H7 -2.66934 -4.27495 -4.40989 H 3 UNL1 0
90 H8 -0.83719 -3.2658 -6.8663 H 3 UNL1 0
91 H9 -0.35714 -4.25995 -5.3637 H 3 UNL1 0
92 H10 2.20516 -4.29338 -5.673 H 3 UNL1 0
93 H11 4.47796 -2.90278 -5.36541 H 3 UNL1 0
94 H12 4.39591 -0.23482 -5.13306 H 3 UNL1 0
95 H13 2.04522 1.04793 -5.25477 H 3 UNL1 0
96 H14 -0.224467 -0.340791 -5.5556 H 3 UNL1 0
97 H15 -4.8721 -0.521711 -4.28469 H 3 UNL1 0
98 H16 -4.1805 -1.23987 -5.8568 H 3 UNL1 0
99 H17 -3.80903 -1.46052 -2.06607 H 3 UNL1 0
100 H18 -2.12863 -1.60964 -2.83785 H 3 UNL1 0
101 H -3.04364 -0.433066 -4.62302 H 3 UNL1 0
@<TRIPOS>BOND
1 2 3 1
2 2 19 1
3 2 20 1
4 3 4 1
5 3 13 1
6 3 15 1
7 4 5 1
8 4 21 1
9 4 22 1
10 5 6 1
11 6 7 1
12 6 23 1
13 6 24 1
14 7 8 am
15 7 12 am
16 8 9 am
17 8 25 1
18 9 10 am
19 9 26 1
20 10 11 am
21 10 27 1
22 11 12 am
23 11 28 1
24 12 29 1
25 13 30 1
26 13 31 1
27 14 15 1
28 15 32 1
29 15 33 1
30 1 16 1
31 1 17 1
32 1 18 1
33 1 2 1
34 14 34 1
35 36 37 1
36 36 53 1
37 36 54 1
38 37 38 1
39 37 47 1
40 37 49 1
41 38 39 1
42 38 55 1
43 38 56 1
44 39 40 1
45 40 41 1
46 40 57 1
47 40 58 1
48 41 42 am
49 41 46 am
50 42 43 am
51 42 59 1
52 43 44 am
53 43 60 1
54 44 45 am
55 44 61 1
56 45 46 am
57 45 62 1
58 46 63 1
59 47 48 1
60 47 64 1
61 47 65 1
62 49 66 1
63 35 50 1
64 35 51 1
65 35 52 1
66 35 36 1
67 49 67 1
68 13 48 1
69 69 70 1
70 69 86 1
71 69 87 1
72 70 71 1
73 70 80 1
74 70 82 1
75 71 72 1
76 71 88 1
77 71 89 1
78 72 73 1
79 73 74 1
80 73 90 1
81 73 91 1
82 74 75 am
83 74 79 am
84 75 76 am
85 75 92 1
86 76 77 am
87 76 93 1
88 77 78 am
89 77 94 1
90 78 79 am
91 78 95 1
92 79 96 1
93 80 97 1
94 80 98 1
95 81 82 1
96 82 99 1
97 82 100 1
98 68 83 1
99 68 84 1
100 68 85 1
101 68 69 1
102 80 101 1
103 81 49 1
@<TRIPOS>SUBSTRUCTURE
1 UNL1 1 **** **** C13H
2 UNL1 35 **** **** C130
3 UNL1 68 **** **** C131
