# Mol2 file generated by Materials Studio
@<TRIPOS>MOLECULE
"mol_EX-121"
107 106 3 0 0 
SMALL
USER_CHARGES


@<TRIPOS>ATOM
1 C1 -0.943615 1.3044 1.66613 C.3 1 UNL1 0
2 C2 -0.351723 1.67251 0.29385 C.3 1 UNL1 0
3 C3 0.934637 0.851021 0.0875723 C.3 1 UNL1 0
4 C4 1.97544 1.20261 1.17039 C.3 1 UNL1 0
5 C5 3.28078 0.396675 0.984903 C.3 1 UNL1 0
6 C6 3.15275 -1.10788 1.31102 C.3 1 UNL1 0
7 C7 2.10537 -1.85742 0.466056 C.3 1 UNL1 0
8 C8 4.3674 0.963306 1.92406 C.3 1 UNL1 0
9 O1 4.62667 2.41148 1.5761 O.3 1 UNL1 0
10 C9 5.74721 3.07103 2.35616 C.3 1 UNL1 0
11 C10 7.1306 2.48264 2.0045 C.3 1 UNL1 0
12 O2 7.15 4.01985 0.0739106 O.3 1 UNL1 0
13 C11 7.29272 2.57228 0.47794 C.3 1 UNL1 0
14 H1 -0.264164 1.70014 2.49155 H 1 UNL1 0
15 H2 -1.02601 0.170679 1.75268 H 1 UNL1 0
16 H3 -1.97907 1.76973 1.77054 H 1 UNL1 0
17 H4 -1.1022 1.42311 -0.527235 H 1 UNL1 0
18 H5 -0.101984 2.78432 0.260769 H 1 UNL1 0
19 H6 1.36826 1.0812 -0.941305 H 1 UNL1 0
20 H7 0.690399 -0.260531 0.153902 H 1 UNL1 0
21 H8 1.53768 0.973305 2.1977 H 1 UNL1 0
22 H9 2.2258 2.31317 1.11048 H 1 UNL1 0
23 H10 3.63216 0.509996 -0.0936578 H 1 UNL1 0
24 H11 2.87941 -1.2195 2.41212 H 1 UNL1 0
25 H12 4.15398 -1.62232 1.13074 H 1 UNL1 0
26 H13 2.21297 -2.97962 0.635407 H 1 UNL1 0
27 H14 2.26847 -1.62228 -0.637443 H 1 UNL1 0
28 H15 1.05953 -1.52506 0.774869 H 1 UNL1 0
29 H16 5.32896 0.364004 1.79816 H 1 UNL1 0
30 H17 4.01197 0.889249 3.0047 H 1 UNL1 0
31 H18 5.55638 2.92958 3.47113 H 1 UNL1 0
32 H19 5.76796 4.1865 2.12185 H 1 UNL1 0
33 H20 7.17199 1.39012 2.32743 H 1 UNL1 0
34 H21 6.48467 1.94992 -0.0313139 H 1 UNL1 0
35 H22 8.32199 2.18197 0.181542 H 1 UNL1 0
36 H 8.1425 4.51516 0.115407 H 1 UNL1 0
37 C1 3.46849 1.88831 6.60048 C.3 2 UNL1 0
38 C2 3.70111 1.56774 5.1128 C.3 2 UNL1 0
39 C3 4.85802 0.560712 4.98188 C.3 2 UNL1 0
40 C4 6.12256 1.18268 5.60074 C.3 2 UNL1 0
41 C5 7.3773 0.327126 5.33189 C.3 2 UNL1 0
42 C6 7.40524 -1.04438 6.03514 C.3 2 UNL1 0
43 C7 6.24309 -1.94676 5.5819 C.3 2 UNL1 0
44 C8 8.58687 1.15658 5.79452 C.3 2 UNL1 0
45 O1 8.33626 2.51364 5.19347 O.3 2 UNL1 0
46 C9 9.53813 3.40729 5.03746 C.3 2 UNL1 0
47 C10 10.4359 2.84096 3.92569 C.3 2 UNL1 0
48 O2 8.24867 3.25351 2.68311 O.3 2 UNL1 0
49 C11 9.45547 2.3514 2.83468 C.3 2 UNL1 0
50 H1 4.46851 2.10347 7.10372 H 2 UNL1 0
51 H2 2.97166 0.996671 7.10816 H 2 UNL1 0
52 H3 2.79303 2.80217 6.69118 H 2 UNL1 0
53 H4 2.75291 1.11751 4.66804 H 2 UNL1 0
54 H5 3.96579 2.52537 4.55379 H 2 UNL1 0
55 H6 5.04363 0.332081 3.88057 H 2 UNL1 0
56 H7 4.58908 -0.400695 5.53231 H 2 UNL1 0
57 H8 5.97498 1.28313 6.72667 H 2 UNL1 0
58 H9 6.29463 2.21742 5.15428 H 2 UNL1 0
59 H10 7.46454 0.158009 4.20788 H 2 UNL1 0
60 H11 7.33609 -0.886313 7.16201 H 2 UNL1 0
61 H12 8.38446 -1.5756 5.79322 H 2 UNL1 0
62 H13 6.44632 -3.02026 5.9073 H 2 UNL1 0
63 H14 6.15007 -1.905 4.44647 H 2 UNL1 0
64 H15 5.27235 -1.58319 6.05633 H 2 UNL1 0
65 H16 9.55366 0.712574 5.38493 H 2 UNL1 0
66 H17 8.61409 1.18598 6.93382 H 2 UNL1 0
67 H18 10.1191 3.44087 6.01775 H 2 UNL1 0
68 H19 9.19633 4.45879 4.75972 H 2 UNL1 0
69 H20 11.025 1.95301 4.33081 H 2 UNL1 0
70 H21 9.1006 1.30133 3.10119 H 2 UNL1 0
71 H22 9.99225 2.31595 1.82959 H 2 UNL1 0
72 C1 9.91348 6.32312 3.19724 C.3 3 UNL1 0
73 C2 10.0065 6.65757 1.69529 C.3 3 UNL1 0
74 C3 10.8642 5.5697 1.02646 C.3 3 UNL1 0
75 C4 12.2168 5.5808 1.75364 C.3 3 UNL1 0
76 C5 13.1824 4.46298 1.30973 C.3 3 UNL1 0
77 C6 12.6324 3.02394 1.23114 C.3 3 UNL1 0
78 C7 11.5361 2.86329 0.162775 C.3 3 UNL1 0
79 C8 14.2064 4.43029 2.45004 C.3 3 UNL1 0
80 O1 14.4833 5.85645 2.82914 O.3 3 UNL1 0
81 C9 14.2748 5.96399 4.32089 C.3 3 UNL1 0
82 C10 12.8344 5.76361 4.85998 C.3 3 UNL1 0
83 O2 11.3927 3.95451 3.56356 O.3 3 UNL1 0
84 C11 12.1156 4.38858 4.82364 C.3 3 UNL1 0
85 H1 10.9586 6.32577 3.65258 H 3 UNL1 0
86 H2 9.44433 5.29248 3.3287 H 3 UNL1 0
87 H3 9.26874 7.10377 3.72116 H 3 UNL1 0
88 H4 8.9631 6.66243 1.23607 H 3 UNL1 0
89 H5 10.4985 7.67496 1.54532 H 3 UNL1 0
90 H6 11.0128 5.8141 -0.0770624 H 3 UNL1 0
91 H7 10.3488 4.55876 1.13585 H 3 UNL1 0
92 H8 12.0298 5.47786 2.87348 H 3 UNL1 0
93 H9 12.7434 6.57345 1.56149 H 3 UNL1 0
94 H10 13.691 4.74599 0.329517 H 3 UNL1 0
95 H11 12.203 2.7364 2.24731 H 3 UNL1 0
96 H12 13.4798 2.30689 0.971683 H 3 UNL1 0
97 H13 11.2951 1.75712 0.0289488 H 3 UNL1 0
98 H14 11.9034 3.29456 -0.826497 H 3 UNL1 0
99 H15 10.5977 3.4192 0.494586 H 3 UNL1 0
100 H16 15.167 3.92989 2.09451 H 3 UNL1 0
101 H17 13.7731 3.85459 3.33347 H 3 UNL1 0
102 H18 14.6375 6.99171 4.65529 H 3 UNL1 0
103 H19 14.9064 5.17662 4.85064 H 3 UNL1 0
104 H20 12.1648 6.50718 4.31373 H 3 UNL1 0
105 H21 11.3624 4.36895 5.67912 H 3 UNL1 0
106 H22 12.874 3.55829 5.01097 H 3 UNL1 0
107 H 12.8021 6.03301 5.96722 H 3 UNL1 0
@<TRIPOS>BOND
1 2 3 1
2 2 17 1
3 2 18 1
4 3 4 1
5 3 19 1
6 3 20 1
7 4 5 1
8 4 21 1
9 4 22 1
10 5 6 1
11 5 8 1
12 5 23 1
13 6 7 1
14 6 24 1
15 6 25 1
16 7 26 1
17 7 27 1
18 7 28 1
19 8 9 1
20 8 29 1
21 8 30 1
22 9 10 1
23 10 11 1
24 10 31 1
25 10 32 1
26 11 13 1
27 11 33 1
28 12 13 1
29 13 34 1
30 13 35 1
31 1 15 1
32 1 16 1
33 1 14 1
34 1 2 1
35 12 36 1
36 38 39 1
37 38 53 1
38 38 54 1
39 39 40 1
40 39 55 1
41 39 56 1
42 40 41 1
43 40 57 1
44 40 58 1
45 41 42 1
46 41 44 1
47 41 59 1
48 42 43 1
49 42 60 1
50 42 61 1
51 43 62 1
52 43 63 1
53 43 64 1
54 44 45 1
55 44 65 1
56 44 66 1
57 45 46 1
58 46 47 1
59 46 67 1
60 46 68 1
61 47 49 1
62 47 69 1
63 48 49 1
64 49 70 1
65 49 71 1
66 37 51 1
67 37 52 1
68 37 50 1
69 37 38 1
70 48 11 1
71 73 74 1
72 73 88 1
73 73 89 1
74 74 75 1
75 74 90 1
76 74 91 1
77 75 76 1
78 75 92 1
79 75 93 1
80 76 77 1
81 76 79 1
82 76 94 1
83 77 78 1
84 77 95 1
85 77 96 1
86 78 97 1
87 78 98 1
88 78 99 1
89 79 80 1
90 79 100 1
91 79 101 1
92 80 81 1
93 81 82 1
94 81 102 1
95 81 103 1
96 82 84 1
97 82 104 1
98 83 84 1
99 84 105 1
100 84 106 1
101 72 86 1
102 72 87 1
103 72 85 1
104 72 73 1
105 82 107 1
106 83 47 1
@<TRIPOS>SUBSTRUCTURE
1 UNL1 1 **** **** C11H
2 UNL1 37 **** **** C110
3 UNL1 72 **** **** C111
