# Mol2 file generated by Materials Studio
@<TRIPOS>MOLECULE
mol_EX141
65 67 3 0 0 
SMALL
USER_CHARGES


@<TRIPOS>ATOM
1 C1 -0.660399 -1.28811 -0.635545 C.ar 1 UNL1 0
2 O1 0.407692 -2.17406 -1.2373 O.3 1 UNL1 0
3 C2 1.7228 -1.5143 -0.897929 C.3 1 UNL1 0
4 C3 2.16315 -1.9018 0.525182 C.3 1 UNL1 0
5 C4 3.30883 -0.961833 0.948984 C.3 1 UNL1 0
6 O2 4.44864 -1.09044 -0.0354444 O.3 1 UNL1 0
7 C5 -1.98146 -1.88838 -0.115387 C.ar 1 UNL1 0
8 C6 -3.07555 -0.96541 0.455801 C.ar 1 UNL1 0
9 C7 -2.84459 0.556324 0.525424 C.ar 1 UNL1 0
10 C8 -1.51505 1.15336 0.0326376 C.ar 1 UNL1 0
11 C9 -0.422859 0.231723 -0.544377 C.ar 1 UNL1 0
12 H1 1.6045 -0.382222 -0.96126 H 1 UNL1 0
13 H2 2.52007 -1.85249 -1.63926 H 1 UNL1 0
14 H4 3.67138 -1.2492 1.99089 H 1 UNL1 0
15 H5 2.933 0.114379 0.960031 H 1 UNL1 0
16 H6 -2.14905 -3.01536 -0.153291 H 1 UNL1 0
17 H7 -4.05792 -1.40833 0.827766 H 1 UNL1 0
18 H8 -3.65816 1.23788 0.941572 H 1 UNL1 0
19 H9 -1.33755 2.27777 0.0942493 H 1 UNL1 0
20 H10 0.564001 0.673918 -0.90517 H 1 UNL1 0
21 H 1.28851 -1.82221 1.25201 H 1 UNL1 0
22 H 5.32228 -0.512975 0.332527 H 1 UNL1 0
23 C1 -0.287776 -6.72242 -0.545473 C.ar 2 UNL1 0
24 O1 1.05164 -7.4174 -0.502468 O.3 2 UNL1 0
25 C2 2.1406 -6.68661 -1.25083 C.3 2 UNL1 0
26 C3 2.7852 -5.54332 -0.441353 C.3 2 UNL1 0
27 C4 1.86477 -4.33923 -0.16938 C.3 2 UNL1 0
28 O2 2.72334 -3.30541 0.517681 O.3 2 UNL1 0
29 C5 -1.52857 -7.42753 0.0348705 C.ar 2 UNL1 0
30 C6 -2.90693 -6.74551 -0.0354716 C.ar 2 UNL1 0
31 C7 -3.04574 -5.35503 -0.680821 C.ar 2 UNL1 0
32 C8 -1.80629 -4.65436 -1.26929 C.ar 2 UNL1 0
33 C9 -0.429781 -5.34105 -1.21083 C.ar 2 UNL1 0
34 H1 1.70035 -6.25438 -2.20945 H 2 UNL1 0
35 H2 2.97 -7.41883 -1.52569 H 2 UNL1 0
36 H3 3.70584 -5.17551 -1.00416 H 2 UNL1 0
37 H4 1.00633 -4.65017 0.513259 H 2 UNL1 0
38 H5 1.45489 -3.94356 -1.15683 H 2 UNL1 0
39 H6 -1.42517 -8.45547 0.516788 H 2 UNL1 0
40 H7 -3.82496 -7.2703 0.390439 H 2 UNL1 0
41 H8 -4.06455 -4.84525 -0.722808 H 2 UNL1 0
42 H9 -1.90741 -3.62528 -1.74925 H 2 UNL1 0
43 H10 0.483236 -4.82689 -1.65987 H 2 UNL1 0
44 H 3.11615 -5.93758 0.57582 H 2 UNL1 0
45 C1 9.94613 -0.166785 -1.43124 C.ar 3 UNL1 0
46 O1 11.0886 -1.12024 -1.67901 O.3 3 UNL1 0
47 C2 12.3827 -0.366996 -1.88218 C.3 3 UNL1 0
48 C3 12.7648 0.389527 -0.596124 C.3 3 UNL1 0
49 C4 13.1559 1.88074 -0.62893 C.3 3 UNL1 0
50 O2 14.1844 0.825613 -0.910636 O.3 3 UNL1 0
51 C5 8.5278 -0.71579 -1.19167 C.ar 3 UNL1 0
52 C6 7.35731 0.256857 -0.955579 C.ar 3 UNL1 0
53 C7 7.60732 1.77638 -0.958177 C.ar 3 UNL1 0
54 C8 9.02716 2.32421 -1.19692 C.ar 3 UNL1 0
55 C9 10.1966 1.35222 -1.43647 C.ar 3 UNL1 0
56 H1 12.256 0.378358 -2.73541 H 3 UNL1 0
57 H2 13.2135 -1.10256 -2.1434 H 3 UNL1 0
58 H3 12.5519 -0.0994467 0.411438 H 3 UNL1 0
59 H4 13.2356 2.39937 0.383134 H 3 UNL1 0
60 H5 12.5355 2.41905 -1.41941 H 3 UNL1 0
61 H6 8.34349 -1.84079 -1.18889 H 3 UNL1 0
62 H7 6.3064 -0.148139 -0.779009 H 3 UNL1 0
63 H8 6.74131 2.49684 -0.783331 H 3 UNL1 0
64 H9 9.21166 3.44918 -1.19616 H 3 UNL1 0
65 H10 11.2466 1.75744 -1.61748 H 3 UNL1 0
@<TRIPOS>BOND
1 2 3 1
2 3 4 1
3 3 12 1
4 3 13 1
5 4 5 1
6 5 6 1
7 5 14 1
8 5 15 1
9 7 8 am
10 7 16 1
11 8 9 am
12 8 17 1
13 9 10 am
14 9 18 1
15 10 11 am
16 10 19 1
17 11 20 1
18 1 7 am
19 1 2 1
20 1 11 am
21 4 21 1
22 6 22 1
23 24 25 1
24 25 26 1
25 25 34 1
26 25 35 1
27 26 27 1
28 26 36 1
29 27 28 1
30 27 37 1
31 27 38 1
32 29 30 am
33 29 39 1
34 30 31 am
35 30 40 1
36 31 32 am
37 31 41 1
38 32 33 am
39 32 42 1
40 33 43 1
41 23 29 am
42 23 24 1
43 23 33 am
44 26 44 1
45 4 28 1
46 46 47 1
47 47 48 1
48 47 56 1
49 47 57 1
50 48 49 1
51 48 50 1
52 48 58 1
53 49 50 1
54 49 59 1
55 49 60 1
56 51 52 am
57 51 61 1
58 52 53 am
59 52 62 1
60 53 54 am
61 53 63 1
62 54 55 am
63 54 64 1
64 55 65 1
65 45 51 am
66 45 46 1
67 45 55 am
@<TRIPOS>SUBSTRUCTURE
1 UNL1 1 **** **** C9H1
2 UNL1 23 **** **** C9H0
3 UNL1 45 **** **** C9H2
