# Mol2 file generated by Materials Studio
@<TRIPOS>MOLECULE
mol_CEL2021P
117 124 3 0 0 
SMALL
USER_CHARGES


@<TRIPOS>ATOM
1 O1 0.452692 -0.152061 2.15242 O.co2 1 UNL1 0
2 C1 0.676953 -0.0603847 0.661829 C.2 1 UNL1 0
3 O2 -0.304628 0.703666 -0.195984 O.co2 1 UNL1 0
4 C2 -1.60899 0.712705 0.565372 C.3 1 UNL1 0
5 C3 -2.16962 -0.720966 0.610484 C.3 1 UNL1 0
6 C4 -3.43021 -0.874616 1.46372 C.3 1 UNL1 0
7 C5 -3.67518 -2.39358 1.60935 C.3 1 UNL1 0
8 C6 -3.25462 -3.15366 0.33167 C.3 1 UNL1 0
9 C7 -3.59368 -2.25999 -0.863033 C.3 1 UNL1 0
10 O3 -5.01554 -1.78137 -0.685667 O.3 1 UNL1 0
11 C8 -2.55715 -1.1165 -0.830189 C.3 1 UNL1 0
12 C9 1.9203 -0.718649 0.0365656 C.3 1 UNL1 0
13 C10 2.79265 0.22064 -0.805907 C.3 1 UNL1 0
14 C11 3.74274 -0.745041 -1.54228 C.3 1 UNL1 0
15 C12 4.07391 -1.94981 -0.635515 C.3 1 UNL1 0
16 C13 4.31532 -1.18726 0.687657 C.3 1 UNL1 0
17 O4 5.22364 -2.30834 0.266508 O.3 1 UNL1 0
18 C14 2.8593 -1.12072 1.19113 C.3 1 UNL1 0
19 H1 -2.35339 1.39742 0.0394106 H 1 UNL1 0
20 H2 -1.42732 1.08917 1.62597 H 1 UNL1 0
21 H3 -1.36405 -1.43052 0.994129 H 1 UNL1 0
22 H4 -4.31693 -0.385495 0.940183 H 1 UNL1 0
23 H5 -3.26202 -0.388571 2.48111 H 1 UNL1 0
24 H6 -4.78293 -2.57694 1.80649 H 1 UNL1 0
25 H7 -3.06746 -2.79411 2.48676 H 1 UNL1 0
26 H9 -3.49656 -2.84958 -1.83388 H 1 UNL1 0
27 H10 -1.62043 -1.4484 -1.38875 H 1 UNL1 0
28 H11 -3.00766 -0.215292 -1.36354 H 1 UNL1 0
29 H12 1.62166 -1.63584 -0.571036 H 1 UNL1 0
30 H13 3.38387 0.926043 -0.133253 H 1 UNL1 0
31 H14 2.13196 0.812692 -1.52184 H 1 UNL1 0
32 H15 4.70577 -0.197304 -1.81091 H 1 UNL1 0
33 H16 3.24108 -1.11855 -2.4954 H 1 UNL1 0
34 H17 3.21186 -2.69214 -0.561834 H 1 UNL1 0
35 H18 4.77776 -0.157459 0.528735 H 1 UNL1 0
36 H19 2.55042 -2.14233 1.59176 H 1 UNL1 0
37 H20 2.78625 -0.348719 2.02676 H 1 UNL1 0
38 H -2.12646 -3.31547 0.357903 H 1 UNL1 0
39 H -5.03921 -0.96064 0.061285 H 1 UNL1 0
40 O1 1.45082 -5.04132 0.954147 O.co2 2 UNL1 0
41 C1 1.53587 -6.5407 0.80154 C.2 2 UNL1 0
42 O2 0.307989 -7.39089 1.01847 O.co2 2 UNL1 0
43 C2 -0.675768 -7.16556 -0.10503 C.3 2 UNL1 0
44 C3 -1.08837 -5.68266 -0.132443 C.3 2 UNL1 0
45 C4 -2.1406 -5.5602 -1.23853 C.3 2 UNL1 0
46 C5 -3.09044 -6.76116 -1.02763 C.3 2 UNL1 0
47 C6 -3.71492 -7.10583 0.595142 C.3 2 UNL1 0
48 C7 -3.27977 -5.48091 1.17269 C.3 2 UNL1 0
49 O3 -3.93417 -4.49944 0.232632 O.3 2 UNL1 0
50 C8 -1.75337 -5.25875 1.18898 C.3 2 UNL1 0
51 C9 2.85246 -7.19236 0.340437 C.3 2 UNL1 0
52 C10 3.7123 -6.27736 -0.541883 C.3 2 UNL1 0
53 C11 4.75689 -7.24356 -1.13894 C.3 2 UNL1 0
54 C12 5.101 -8.33791 -0.107393 C.3 2 UNL1 0
55 C13 5.22483 -7.44708 1.15172 C.3 2 UNL1 0
56 O4 6.22108 -8.53825 0.874394 O.3 2 UNL1 0
57 C14 3.74232 -7.42757 1.57582 C.3 2 UNL1 0
58 H1 -1.59843 -7.81406 0.0615499 H 2 UNL1 0
59 H2 -0.189282 -7.4441 -1.09768 H 2 UNL1 0
60 H3 -0.188841 -5.02015 -0.359415 H 2 UNL1 0
61 H4 -1.64409 -5.62677 -2.26257 H 2 UNL1 0
62 H5 -2.6902 -4.56714 -1.13192 H 2 UNL1 0
63 H6 -2.55427 -7.69635 -1.39848 H 2 UNL1 0
64 H7 -4.0257 -6.62236 -1.66453 H 2 UNL1 0
65 H9 -3.6943 -5.33044 2.22394 H 2 UNL1 0
66 H10 -1.54108 -4.15401 1.3736 H 2 UNL1 0
67 H11 -1.31659 -5.86904 2.0471 H 2 UNL1 0
68 H12 2.64336 -8.17791 -0.193014 H 2 UNL1 0
69 H13 4.2235 -5.47865 0.090839 H 2 UNL1 0
70 H14 3.05744 -5.79482 -1.34058 H 2 UNL1 0
71 H15 5.70124 -6.6635 -1.40604 H 2 UNL1 0
72 H16 4.3317 -7.72959 -2.07841 H 2 UNL1 0
73 H17 4.28354 -9.12667 -0.0113619 H 2 UNL1 0
74 H18 5.63168 -6.4078 0.919426 H 2 UNL1 0
75 H19 3.47134 -8.42637 2.05391 H 2 UNL1 0
76 H20 3.57567 -6.58862 2.32946 H 2 UNL1 0
77 H -2.69498 -7.50294 0.913931 H 2 UNL1 0
78 O1 -0.887969 -11.0371 3.9995 O.co2 3 UNL1 0
79 C1 -0.334849 -11.1679 2.60008 C.2 3 UNL1 0
80 O2 -0.95428 -10.3917 1.46037 O.co2 3 UNL1 0
81 C2 -1.7245 -9.19389 1.96428 C.3 3 UNL1 0
82 C3 -2.98715 -9.63144 2.73284 C.3 3 UNL1 0
83 C4 -3.73269 -8.40007 3.2863 C.3 3 UNL1 0
84 C5 -5.21785 -8.76923 3.40272 C.3 3 UNL1 0
85 C6 -5.80273 -8.84424 1.97343 C.3 3 UNL1 0
86 C7 -4.88097 -9.61275 1.00426 C.3 3 UNL1 0
87 O3 -4.17383 -8.69889 0.025378 O.3 3 UNL1 0
88 C8 -3.9422 -10.4733 1.86547 C.3 3 UNL1 0
89 C9 0.961705 -11.9632 2.36745 C.3 3 UNL1 0
90 C10 1.98586 -11.2348 1.48894 C.3 3 UNL1 0
91 C11 2.98945 -12.3465 1.12522 C.3 3 UNL1 0
92 C12 3.11267 -13.3373 2.30094 C.3 3 UNL1 0
93 C13 3.20482 -12.321 3.46435 C.3 3 UNL1 0
94 O4 4.10265 -13.5268 3.41642 O.3 3 UNL1 0
95 C14 1.69583 -12.1138 3.71399 C.3 3 UNL1 0
96 H1 -2.03066 -8.54503 1.07837 H 3 UNL1 0
97 H2 -1.06337 -8.58429 2.66493 H 3 UNL1 0
98 H3 -2.65773 -10.2711 3.61714 H 3 UNL1 0
99 H4 -3.60874 -7.52071 2.57148 H 3 UNL1 0
100 H5 -3.30984 -8.12799 4.30941 H 3 UNL1 0
101 H6 -5.76723 -7.96997 4.00186 H 3 UNL1 0
102 H7 -5.31893 -9.77815 3.92374 H 3 UNL1 0
103 H8 -5.95581 -7.78563 1.57907 H 3 UNL1 0
104 H9 -5.53625 -10.3221 0.398444 H 3 UNL1 0
105 H10 -4.57078 -11.1373 2.54629 H 3 UNL1 0
106 H11 -3.33454 -11.1345 1.16325 H 3 UNL1 0
107 H12 0.723593 -12.9887 1.92993 H 3 UNL1 0
108 H13 2.50273 -10.4084 2.08021 H 3 UNL1 0
109 H14 1.46197 -10.8025 0.57338 H 3 UNL1 0
110 H15 4.00862 -11.8827 0.911243 H 3 UNL1 0
111 H16 2.62288 -12.9013 0.199226 H 3 UNL1 0
112 H17 2.21065 -14.0286 2.39057 H 3 UNL1 0
113 H18 3.74048 -11.3588 3.16962 H 3 UNL1 0
114 H19 1.27735 -13.0134 4.27551 H 3 UNL1 0
115 H20 1.54213 -11.1722 4.33798 H 3 UNL1 0
116 H -6.80928 -9.37868 2.00229 H 3 UNL1 0
117 H -9.39872 -6.62274 3.72134 H 0 **** 0
@<TRIPOS>BOND
1 1 2 2
2 2 3 1
3 2 12 1
4 3 4 1
5 4 5 1
6 4 19 1
7 4 20 1
8 5 6 1
9 5 11 1
10 5 21 1
11 6 7 1
12 6 22 1
13 6 23 1
14 7 8 1
15 7 24 1
16 7 25 1
17 8 9 1
18 9 10 1
19 9 11 1
20 9 26 1
21 11 27 1
22 11 28 1
23 12 13 1
24 12 18 1
25 12 29 1
26 13 14 1
27 13 30 1
28 13 31 1
29 14 15 1
30 14 32 1
31 14 33 1
32 15 16 1
33 15 17 1
34 15 34 1
35 16 17 1
36 16 18 1
37 16 35 1
38 18 36 1
39 18 37 1
40 8 38 1
41 10 39 1
42 40 41 2
43 41 42 1
44 41 51 1
45 42 43 1
46 43 44 1
47 43 58 1
48 43 59 1
49 44 45 1
50 44 50 1
51 44 60 1
52 45 46 1
53 45 61 1
54 45 62 1
55 46 47 1
56 46 63 1
57 46 64 1
58 47 48 1
59 48 49 1
60 48 50 1
61 48 65 1
62 50 66 1
63 50 67 1
64 51 52 1
65 51 57 1
66 51 68 1
67 52 53 1
68 52 69 1
69 52 70 1
70 53 54 1
71 53 71 1
72 53 72 1
73 54 55 1
74 54 56 1
75 54 73 1
76 55 56 1
77 55 57 1
78 55 74 1
79 57 75 1
80 57 76 1
81 47 77 1
82 8 49 1
83 78 79 2
84 79 80 1
85 79 89 1
86 80 81 1
87 81 82 1
88 81 96 1
89 81 97 1
90 82 83 1
91 82 88 1
92 82 98 1
93 83 84 1
94 83 99 1
95 83 100 1
96 84 85 1
97 84 101 1
98 84 102 1
99 85 86 1
100 85 103 1
101 86 87 1
102 86 88 1
103 86 104 1
104 88 105 1
105 88 106 1
106 89 90 1
107 89 95 1
108 89 107 1
109 90 91 1
110 90 108 1
111 90 109 1
112 91 92 1
113 91 110 1
114 91 111 1
115 92 93 1
116 92 94 1
117 92 112 1
118 93 94 1
119 93 95 1
120 93 113 1
121 95 114 1
122 95 115 1
123 85 116 1
124 87 47 1
@<TRIPOS>SUBSTRUCTURE
1 UNL1 1 **** **** C14H
2 UNL1 40 **** **** C140
3 UNL1 78 **** **** C141
