# Mol2 file generated by Materials Studio
@<TRIPOS>MOLECULE
mol_CEL2021P
116 124 3 0 0 
SMALL
USER_CHARGES


@<TRIPOS>ATOM
1 O1 0.366203 0.248984 1.70121 O.co2 1 UNL1 0
2 C1 0.742853 0.122042 0.244311 C.2 1 UNL1 0
3 O2 -0.125876 0.766741 -0.810385 O.co2 1 UNL1 0
4 C2 -1.41143 1.12733 -0.105241 C.3 1 UNL1 0
5 C3 -2.07349 -0.185498 0.350013 C.3 1 UNL1 0
6 C4 -3.31512 -0.0227017 1.22831 C.3 1 UNL1 0
7 C5 -3.57352 -1.4326 1.80664 C.3 1 UNL1 0
8 C6 -3.14291 -2.5427 0.82033 C.3 1 UNL1 0
9 C7 -3.57135 -2.0361 -0.558328 C.3 1 UNL1 0
10 O3 -4.9857 -1.51781 -0.436952 O.3 1 UNL1 0
11 C8 -2.534 -0.949899 -0.909034 C.3 1 UNL1 0
12 C9 2.02606 -0.634061 -0.145136 C.3 1 UNL1 0
13 C10 3.03315 0.190934 -0.957557 C.3 1 UNL1 0
14 C11 4.04568 -0.863491 -1.44961 C.3 1 UNL1 0
15 C12 4.22811 -1.96104 -0.380337 C.3 1 UNL1 0
16 C13 4.30081 -1.0535 0.870302 C.3 1 UNL1 0
17 O4 5.23474 -2.219 0.707633 O.3 1 UNL1 0
18 C14 2.79178 -0.923549 1.16138 C.3 1 UNL1 0
19 H1 -2.11261 1.70063 -0.796865 H 1 UNL1 0
20 H2 -1.1592 1.76536 0.804623 H 1 UNL1 0
21 H3 -1.32923 -0.796011 0.960964 H 1 UNL1 0
22 H4 -4.16043 0.321068 0.545847 H 1 UNL1 0
23 H5 -3.17593 0.714981 2.08595 H 1 UNL1 0
24 H6 -4.68319 -1.49859 2.05999 H 1 UNL1 0
25 H7 -2.96156 -1.59309 2.75512 H 1 UNL1 0
26 H9 -3.53429 -2.82356 -1.37396 H 1 UNL1 0
27 H10 -1.59861 -1.41823 -1.36109 H 1 UNL1 0
28 H11 -3.0145 -0.254177 -1.67278 H 1 UNL1 0
29 H12 1.78644 -1.58024 -0.734356 H 1 UNL1 0
30 H13 3.50834 0.950025 -0.252504 H 1 UNL1 0
31 H14 2.57231 0.715371 -1.85846 H 1 UNL1 0
32 H15 5.02716 -0.367205 -1.75047 H 1 UNL1 0
33 H16 3.59787 -1.38986 -2.35666 H 1 UNL1 0
34 H17 3.3056 -2.61704 -0.245334 H 1 UNL1 0
35 H18 4.79113 -0.0805356 0.534436 H 1 UNL1 0
36 H19 2.34941 -1.82765 1.69633 H 1 UNL1 0
37 H20 2.69282 -0.00734917 1.83214 H 1 UNL1 0
38 H -2.00746 -2.6454 0.818495 H 1 UNL1 0
39 H -5.05141 -0.747264 0.358275 H 1 UNL1 0
40 O1 1.58982 -5.31028 1.44765 O.co2 2 UNL1 0
41 C1 1.61098 -6.48502 0.500621 C.2 2 UNL1 0
42 O2 0.314396 -7.05707 -0.0201322 O.co2 2 UNL1 0
43 C2 -0.380302 -6.07337 -0.931208 C.3 2 UNL1 0
44 C3 -0.645407 -4.75865 -0.173059 C.3 2 UNL1 0
45 C4 -1.42598 -3.84365 -1.12323 C.3 2 UNL1 0
46 C5 -2.63764 -4.65453 -1.63439 C.3 2 UNL1 0
47 C6 -3.16708 -5.6336 -0.566711 C.3 2 UNL1 0
48 C7 -2.99798 -5.11343 0.869293 C.3 2 UNL1 0
49 O3 -3.75474 -3.85463 1.24986 O.3 2 UNL1 0
50 C8 -1.4797 -4.9652 1.1154 C.3 2 UNL1 0
51 C9 2.94718 -7.17018 0.161893 C.3 2 UNL1 0
52 C10 3.88954 -6.31307 -0.693379 C.3 2 UNL1 0
53 C11 4.96404 -7.31857 -1.15583 C.3 2 UNL1 0
54 C12 5.20955 -8.36636 -0.0505494 C.3 2 UNL1 0
55 C13 5.24709 -7.41656 1.17001 C.3 2 UNL1 0
56 O4 6.24197 -8.53372 1.03001 O.3 2 UNL1 0
57 C14 3.73583 -7.35552 1.47336 C.3 2 UNL1 0
58 H1 -1.36292 -6.52501 -1.28848 H 2 UNL1 0
59 H2 0.277871 -5.85514 -1.83608 H 2 UNL1 0
60 H3 0.3559 -4.30375 0.125851 H 2 UNL1 0
61 H4 -0.807029 -3.49511 -2.01473 H 2 UNL1 0
62 H5 -1.74669 -2.93854 -0.515373 H 2 UNL1 0
63 H6 -2.33 -5.30342 -2.51976 H 2 UNL1 0
64 H7 -3.44622 -3.93564 -1.98697 H 2 UNL1 0
65 H8 -2.52152 -6.57117 -0.603436 H 2 UNL1 0
66 H9 -3.38488 -5.90992 1.58728 H 2 UNL1 0
67 H10 -1.35304 -4.08097 1.82346 H 2 UNL1 0
68 H11 -1.06331 -5.90011 1.61731 H 2 UNL1 0
69 H12 2.77161 -8.15412 -0.386291 H 2 UNL1 0
70 H13 4.32032 -5.49699 -0.0233955 H 2 UNL1 0
71 H14 3.38874 -5.85541 -1.60985 H 2 UNL1 0
72 H15 5.91232 -6.77522 -1.48081 H 2 UNL1 0
73 H16 4.54686 -7.90256 -2.04176 H 2 UNL1 0
74 H17 4.32561 -9.06642 0.117548 H 2 UNL1 0
75 H18 5.68099 -6.43148 0.794658 H 2 UNL1 0
76 H19 3.35257 -8.26156 2.05 H 2 UNL1 0
77 H20 3.59108 -6.41833 2.10668 H 2 UNL1 0
78 H -4.24296 -5.92458 -0.804847 H 2 UNL1 0
79 O1 -0.974251 -10.7647 3.87448 O.co2 3 UNL1 0
80 C1 -0.493893 -11.1284 2.49024 C.2 3 UNL1 0
81 O2 -1.23921 -10.6383 1.27108 O.co2 3 UNL1 0
82 C2 -2.34813 -9.68667 1.65325 C.3 3 UNL1 0
83 C3 -3.40238 -10.421 2.5019 C.3 3 UNL1 0
84 C4 -4.54102 -9.43937 2.8362 C.3 3 UNL1 0
85 C5 -5.85905 -10.2301 2.81698 C.3 3 UNL1 0
86 C6 -5.68836 -11.5385 3.59833 C.3 3 UNL1 0
87 C7 -4.7241 -12.4862 2.86449 C.3 3 UNL1 0
88 O3 -6.21499 -12.7589 2.89273 O.3 3 UNL1 0
89 C8 -3.99762 -11.6475 1.7874 C.3 3 UNL1 0
90 C9 0.805356 -11.9364 2.31859 C.3 3 UNL1 0
91 C10 1.87036 -11.1917 1.5031 C.3 3 UNL1 0
92 C11 2.90068 -12.2903 1.17402 C.3 3 UNL1 0
93 C12 2.99165 -13.2874 2.34737 C.3 3 UNL1 0
94 C13 2.99419 -12.2761 3.51861 C.3 3 UNL1 0
95 O4 3.92862 -13.4543 3.512 O.3 3 UNL1 0
96 C14 1.47136 -12.1074 3.69822 C.3 3 UNL1 0
97 H1 -2.84392 -9.29482 0.704583 H 3 UNL1 0
98 H2 -1.91858 -8.81184 2.24437 H 3 UNL1 0
99 H3 -2.93027 -10.8188 3.45926 H 3 UNL1 0
100 H4 -4.63634 -8.64697 2.0219 H 3 UNL1 0
101 H5 -4.32585 -8.93942 3.83797 H 3 UNL1 0
102 H6 -6.06104 -10.5277 1.73516 H 3 UNL1 0
103 H7 -6.7285 -9.60261 3.20429 H 3 UNL1 0
104 H8 -5.52623 -11.5616 4.72632 H 3 UNL1 0
105 H9 -4.08507 -12.9907 3.66218 H 3 UNL1 0
106 H10 -3.15632 -12.2875 1.35977 H 3 UNL1 0
107 H11 -4.69707 -11.3142 0.950847 H 3 UNL1 0
108 H12 0.602616 -12.9334 1.804 H 3 UNL1 0
109 H13 2.30616 -10.3728 2.16476 H 3 UNL1 0
110 H14 1.47411 -10.7513 0.529953 H 3 UNL1 0
111 H15 3.90649 -11.8297 0.897849 H 3 UNL1 0
112 H16 2.50699 -12.8932 0.289917 H 3 UNL1 0
113 H17 2.05573 -13.9243 2.48171 H 3 UNL1 0
114 H18 3.51529 -11.3385 3.13253 H 3 UNL1 0
115 H19 0.983422 -12.9572 4.28097 H 3 UNL1 0
116 H20 1.33991 -11.1335 4.2762 H 3 UNL1 0
@<TRIPOS>BOND
1 1 2 2
2 2 3 1
3 2 12 1
4 3 4 1
5 4 5 1
6 4 19 1
7 4 20 1
8 5 6 1
9 5 11 1
10 5 21 1
11 6 7 1
12 6 22 1
13 6 23 1
14 7 8 1
15 7 24 1
16 7 25 1
17 8 9 1
18 9 10 1
19 9 11 1
20 9 26 1
21 11 27 1
22 11 28 1
23 12 13 1
24 12 18 1
25 12 29 1
26 13 14 1
27 13 30 1
28 13 31 1
29 14 15 1
30 14 32 1
31 14 33 1
32 15 16 1
33 15 17 1
34 15 34 1
35 16 17 1
36 16 18 1
37 16 35 1
38 18 36 1
39 18 37 1
40 8 38 1
41 10 39 1
42 40 41 2
43 41 42 1
44 41 51 1
45 42 43 1
46 43 44 1
47 43 58 1
48 43 59 1
49 44 45 1
50 44 50 1
51 44 60 1
52 45 46 1
53 45 61 1
54 45 62 1
55 46 47 1
56 46 63 1
57 46 64 1
58 47 48 1
59 47 65 1
60 48 49 1
61 48 50 1
62 48 66 1
63 50 67 1
64 50 68 1
65 51 52 1
66 51 57 1
67 51 69 1
68 52 53 1
69 52 70 1
70 52 71 1
71 53 54 1
72 53 72 1
73 53 73 1
74 54 55 1
75 54 56 1
76 54 74 1
77 55 56 1
78 55 57 1
79 55 75 1
80 57 76 1
81 57 77 1
82 47 78 1
83 8 49 1
84 79 80 2
85 80 81 1
86 80 90 1
87 81 82 1
88 82 83 1
89 82 97 1
90 82 98 1
91 83 84 1
92 83 89 1
93 83 99 1
94 84 85 1
95 84 100 1
96 84 101 1
97 85 86 1
98 85 102 1
99 85 103 1
100 86 87 1
101 86 88 1
102 86 104 1
103 87 88 1
104 87 89 1
105 87 105 1
106 89 106 1
107 89 107 1
108 90 91 1
109 90 96 1
110 90 108 1
111 91 92 1
112 91 109 1
113 91 110 1
114 92 93 1
115 92 111 1
116 92 112 1
117 93 94 1
118 93 95 1
119 93 113 1
120 94 95 1
121 94 96 1
122 94 114 1
123 96 115 1
124 96 116 1
@<TRIPOS>SUBSTRUCTURE
1 UNL1 1 **** **** C14H
2 UNL1 40 **** **** C140
3 UNL1 79 **** **** C141
