# Mol2 file generated by Materials Studio
@<TRIPOS>MOLECULE
"mol_OXT-221"
113 115 3 0 0 
SMALL
USER_CHARGES


@<TRIPOS>ATOM
1 C1 -3.30768 0.839043 -1.10185 C.3 1 UNL1 0
2 C2 -2.89569 1.01977 0.370481 C.3 1 UNL1 0
3 C3 -2.03317 -0.185304 0.784435 C.3 1 UNL1 0
4 C4 -0.789877 -0.285066 -0.117614 C.3 1 UNL1 0
5 O1 0.0216982 0.979691 0.0313748 O.3 1 UNL1 0
6 C5 0.987752 1.18451 -1.11391 C.3 1 UNL1 0
7 C6 2.10207 0.123738 -1.21222 C.3 1 UNL1 0
8 C7 2.94359 0.13017 0.0755133 C.3 1 UNL1 0
9 C8 3.55204 1.53242 0.256143 C.3 1 UNL1 0
10 C9 1.52795 -1.28903 -1.43136 C.3 1 UNL1 0
11 O2 2.6579 -2.28652 -1.51923 O.3 1 UNL1 0
12 C10 2.99926 0.5226 -2.39982 C.3 1 UNL1 0
13 C11 -2.67685 -1.5721 0.891872 C.3 1 UNL1 0
14 O3 -1.63102 -1.85615 1.95331 O.3 1 UNL1 0
15 C12 -1.61111 -0.367832 2.24646 C.3 1 UNL1 0
16 H1 -2.37089 0.776239 -1.74872 H 1 UNL1 0
17 H2 -3.94238 1.72612 -1.43317 H 1 UNL1 0
18 H3 -3.90937 -0.123057 -1.21114 H 1 UNL1 0
19 H4 -2.28882 1.97839 0.481612 H 1 UNL1 0
20 H5 -3.82451 1.07502 1.02911 H 1 UNL1 0
21 H6 -1.13272 -0.389821 -1.19983 H 1 UNL1 0
22 H7 -0.168466 -1.19077 0.183373 H 1 UNL1 0
23 H8 1.48601 2.20082 -0.976987 H 1 UNL1 0
24 H9 0.398692 1.1919 -2.08981 H 1 UNL1 0
25 H10 3.77905 -0.640469 -0.0143017 H 1 UNL1 0
26 H11 2.28114 -0.124574 0.967658 H 1 UNL1 0
27 H12 4.20892 1.7754 -0.643989 H 1 UNL1 0
28 H13 4.18098 1.55639 1.20662 H 1 UNL1 0
29 H14 2.71254 2.3 0.332929 H 1 UNL1 0
30 H15 0.916381 -1.31149 -2.39302 H 1 UNL1 0
31 H16 0.866082 -1.57326 -0.550437 H 1 UNL1 0
32 H18 3.41913 1.56243 -2.19927 H 1 UNL1 0
33 H19 -2.66592 -2.19152 -0.0650727 H 1 UNL1 0
34 H20 -3.70191 -1.50527 1.38627 H 1 UNL1 0
35 H21 -2.47081 -0.114959 2.9511 H 1 UNL1 0
36 H22 -0.620658 0.118394 2.53302 H 1 UNL1 0
37 H 3.25598 -2.24485 -0.584932 H 1 UNL1 0
38 H 2.3827 0.531802 -3.35852 H 1 UNL1 0
39 C1 3.92469 1.99598 -5.44074 C.3 2 UNL1 0
40 C2 4.52962 2.30321 -4.05879 C.3 2 UNL1 0
41 C3 5.60175 1.24097 -3.75183 C.3 2 UNL1 0
42 C4 6.67431 1.3188 -4.85258 C.3 2 UNL1 0
43 O1 7.33228 2.67665 -4.8177 O.3 2 UNL1 0
44 C5 8.44093 2.74296 -5.84135 C.3 2 UNL1 0
45 C6 9.42728 1.583 -5.60899 C.3 2 UNL1 0
46 C7 9.99228 1.6111 -4.17824 C.3 2 UNL1 0
47 C8 10.7407 2.9393 -3.96725 C.3 2 UNL1 0
48 C9 9.01489 0.143372 -5.93709 C.3 2 UNL1 0
49 O2 10.4854 -0.101274 -6.21651 O.3 2 UNL1 0
50 C10 10.5941 1.36761 -6.57914 C.3 2 UNL1 0
51 C11 5.01016 -0.181934 -3.75268 C.3 2 UNL1 0
52 O3 4.14403 -0.448188 -2.54238 O.3 2 UNL1 0
53 C12 6.25011 1.51603 -2.38302 C.3 2 UNL1 0
54 H1 4.75084 2.01714 -6.22625 H 2 UNL1 0
55 H2 3.13517 2.7781 -5.69487 H 2 UNL1 0
56 H3 3.44614 0.961378 -5.42082 H 2 UNL1 0
57 H4 5.01543 3.33432 -4.07768 H 2 UNL1 0
58 H5 3.70784 2.28889 -3.27179 H 2 UNL1 0
59 H6 6.19796 1.13995 -5.87278 H 2 UNL1 0
60 H7 7.46105 0.52014 -4.6497 H 2 UNL1 0
61 H8 8.99019 3.73553 -5.72776 H 2 UNL1 0
62 H9 8.00674 2.66521 -6.89249 H 2 UNL1 0
63 H10 10.7128 0.739299 -4.0353 H 2 UNL1 0
64 H11 9.13603 1.52724 -3.43008 H 2 UNL1 0
65 H12 11.5915 3.01598 -4.7223 H 2 UNL1 0
66 H13 11.1644 2.97504 -2.90953 H 2 UNL1 0
67 H14 10.0179 3.80765 -4.11966 H 2 UNL1 0
68 H15 8.43476 0.102903 -6.91757 H 2 UNL1 0
69 H16 8.51742 -0.426609 -5.08425 H 2 UNL1 0
70 H17 11.5538 1.92385 -6.31544 H 2 UNL1 0
71 H18 10.2571 1.51304 -7.6584 H 2 UNL1 0
72 H19 5.87308 -0.925787 -3.71445 H 2 UNL1 0
73 H20 4.42034 -0.344866 -4.7147 H 2 UNL1 0
74 H21 6.71447 2.55716 -2.38624 H 2 UNL1 0
75 H22 7.05932 0.738616 -2.18247 H 2 UNL1 0
76 H 5.45237 1.45568 -1.57007 H 2 UNL1 0
77 C1 -0.574803 4.45955 4.69453 C.3 3 UNL1 0
78 C2 -0.075803 4.62455 6.09953 C.3 3 UNL1 0
79 C3 0.890197 3.54755 6.47653 C.3 3 UNL1 0
80 C4 2.1382 3.45655 5.63253 C.3 3 UNL1 0
81 O1 2.8832 4.61455 5.67153 O.3 3 UNL1 0
82 C5 3.9862 4.50055 4.88553 C.3 3 UNL1 0
83 C6 4.9552 3.42855 5.21753 C.3 3 UNL1 0
84 C7 5.5752 3.48655 6.59253 C.3 3 UNL1 0
85 C8 6.3412 4.74455 6.83953 C.3 3 UNL1 0
86 C9 4.7102 2.03755 4.76553 C.3 3 UNL1 0
87 O2 6.0742 1.97755 4.37853 O.3 3 UNL1 0
88 C10 5.9752 3.33155 4.08753 C.3 3 UNL1 0
89 C11 0.302197 2.19055 6.72153 C.3 3 UNL1 0
90 O3 1.2882 2.01255 7.71653 O.3 3 UNL1 0
91 C12 1.2002 3.40655 7.92553 C.3 3 UNL1 0
92 H1 -0.906803 5.44955 4.26753 H 3 UNL1 0
93 H2 0.154197 4.04955 3.99453 H 3 UNL1 0
94 H3 -1.5048 3.82555 4.65853 H 3 UNL1 0
95 H4 0.384197 5.62755 6.20153 H 3 UNL1 0
96 H5 -0.938803 4.59355 6.78453 H 3 UNL1 0
97 H6 2.7702 2.67855 6.15653 H 3 UNL1 0
98 H7 1.9562 3.06055 4.61553 H 3 UNL1 0
99 H8 4.5382 5.48255 4.96453 H 3 UNL1 0
100 H9 3.7252 4.37955 3.80153 H 3 UNL1 0
101 H10 6.2082 2.59955 6.75753 H 3 UNL1 0
102 H11 4.7462 3.43055 7.32553 H 3 UNL1 0
103 H12 5.6602 5.59855 6.69053 H 3 UNL1 0
104 H13 6.7462 4.70955 7.85953 H 3 UNL1 0
105 H14 7.2192 4.76555 6.14153 H 3 UNL1 0
106 H15 4.5422 1.25655 5.53953 H 3 UNL1 0
107 H16 4.0982 1.89255 3.86653 H 3 UNL1 0
108 H17 5.4622 3.48155 3.12153 H 3 UNL1 0
109 H18 6.8932 3.92955 4.24153 H 3 UNL1 0
110 H19 -0.708803 2.18155 7.16053 H 3 UNL1 0
111 H20 0.450197 1.53755 5.83053 H 3 UNL1 0
112 H21 0.331197 3.61355 8.60153 H 3 UNL1 0
113 H22 2.1422 3.88555 8.22153 H 3 UNL1 0
@<TRIPOS>BOND
1 2 3 1
2 2 19 1
3 2 20 1
4 3 4 1
5 3 13 1
6 3 15 1
7 4 5 1
8 4 21 1
9 4 22 1
10 5 6 1
11 6 7 1
12 6 23 1
13 6 24 1
14 7 8 1
15 7 10 1
16 7 12 1
17 8 9 1
18 8 25 1
19 8 26 1
20 9 27 1
21 9 28 1
22 9 29 1
23 10 11 1
24 10 30 1
25 10 31 1
26 12 32 1
27 13 14 1
28 13 33 1
29 13 34 1
30 14 15 1
31 15 35 1
32 15 36 1
33 1 18 1
34 1 16 1
35 1 17 1
36 1 2 1
37 11 37 1
38 12 38 1
39 40 41 1
40 40 57 1
41 40 58 1
42 41 42 1
43 41 51 1
44 41 53 1
45 42 43 1
46 42 59 1
47 42 60 1
48 43 44 1
49 44 45 1
50 44 61 1
51 44 62 1
52 45 46 1
53 45 48 1
54 45 50 1
55 46 47 1
56 46 63 1
57 46 64 1
58 47 65 1
59 47 66 1
60 47 67 1
61 48 49 1
62 48 68 1
63 48 69 1
64 49 50 1
65 50 70 1
66 50 71 1
67 51 52 1
68 51 72 1
69 51 73 1
70 53 74 1
71 53 75 1
72 39 56 1
73 39 54 1
74 39 55 1
75 39 40 1
76 53 76 1
77 52 12 1
78 78 79 1
79 78 95 1
80 78 96 1
81 79 80 1
82 79 89 1
83 79 91 1
84 80 81 1
85 80 97 1
86 80 98 1
87 81 82 1
88 82 83 1
89 82 99 1
90 82 100 1
91 83 84 1
92 83 86 1
93 83 88 1
94 84 85 1
95 84 101 1
96 84 102 1
97 85 103 1
98 85 104 1
99 85 105 1
100 86 87 1
101 86 106 1
102 86 107 1
103 87 88 1
104 88 108 1
105 88 109 1
106 89 90 1
107 89 110 1
108 89 111 1
109 90 91 1
110 91 112 1
111 91 113 1
112 77 94 1
113 77 92 1
114 77 93 1
115 77 78 1
@<TRIPOS>SUBSTRUCTURE
1 UNL1 1 **** **** C12H
2 UNL1 39 **** **** C120
3 UNL1 77 **** **** C121
