# Mol2 file generated by Materials Studio
@<TRIPOS>MOLECULE
mol_1750
131 139 3 0 0 
SMALL
USER_CHARGES


@<TRIPOS>ATOM
1 C1 3.85003 0.385137 -0.604137 C.ar 1 UNL1 0
2 O1 5.25327 0.484983 -0.0601986 O.3 1 UNL1 0
3 C2 5.69706 -0.87866 0.410848 C.3 1 UNL1 0
4 C3 7.23486 -0.923596 0.390277 C.3 1 UNL1 0
5 O2 7.41963 1.49802 1.01594 O.3 1 UNL1 0
6 C4 7.85041 0.0945278 1.3691 C.3 1 UNL1 0
7 C5 3.00297 1.65587 -0.800051 C.ar 1 UNL1 0
8 C6 1.602 1.55515 -1.43083 C.ar 1 UNL1 0
9 C7 1.0425 0.182454 -1.84691 C.ar 1 UNL1 0
10 C8 -0.321282 0.0923969 -2.55373 C.3 1 UNL1 0
11 C9 -1.38528 -0.376428 -1.54619 C.ar 1 UNL1 0
12 C10 -1.67865 -1.87925 -1.38277 C.ar 1 UNL1 0
13 C11 -2.78101 -2.34753 -0.414311 C.ar 1 UNL1 0
14 C12 -3.59215 -1.31227 0.387024 C.ar 1 UNL1 0
15 O3 -4.67652 -1.76701 1.33377 O.3 1 UNL1 0
16 C13 -5.66519 -0.644406 1.54412 C.3 1 UNL1 0
17 C14 -6.37384 -0.306853 0.218651 C.3 1 UNL1 0
18 O4 -5.77651 0.758231 -0.655449 O.3 1 UNL1 0
19 C15 -7.01 1.09269 0.166876 C.3 1 UNL1 0
20 C16 -3.31273 0.190703 0.207177 C.ar 1 UNL1 0
21 C17 -2.21533 0.659411 -0.765873 C.ar 1 UNL1 0
22 C18 1.87983 -1.0906 -1.62673 C.ar 1 UNL1 0
23 C19 3.28093 -0.98948 -0.997516 C.ar 1 UNL1 0
24 H1 5.2809 -1.67907 -0.286116 H 1 UNL1 0
25 H2 5.31606 -1.05729 1.47035 H 1 UNL1 0
26 H3 7.58942 -1.97327 0.658743 H 1 UNL1 0
27 H4 8.9872 0.0256449 1.31843 H 1 UNL1 0
28 H5 7.50582 -0.141829 2.42976 H 1 UNL1 0
29 H6 3.41183 2.67036 -0.478755 H 1 UNL1 0
30 H7 0.979361 2.49679 -1.58965 H 1 UNL1 0
31 H8 -0.256024 -0.653679 -3.41321 H 1 UNL1 0
32 H9 -0.606689 1.11821 -2.96098 H 1 UNL1 0
33 H10 -1.07999 -2.64495 -1.97851 H 1 UNL1 0
34 H11 -2.9963 -3.46018 -0.290832 H 1 UNL1 0
35 H12 -5.114 0.278474 1.9237 H 1 UNL1 0
36 H13 -6.44365 -0.962842 2.31367 H 1 UNL1 0
37 H14 -6.9344 -1.15242 -0.301336 H 1 UNL1 0
38 H15 -6.84095 1.75522 1.07906 H 1 UNL1 0
39 H16 -8.08617 1.00762 -0.199493 H 1 UNL1 0
40 H17 -3.9184 0.957355 0.794547 H 1 UNL1 0
41 H18 -2.01729 1.77296 -0.908663 H 1 UNL1 0
42 H19 1.46204 -2.10711 -1.92963 H 1 UNL1 0
43 H20 3.89683 -1.93278 -0.822997 H 1 UNL1 0
44 H 8.21934 2.2132 1.30069 H 1 UNL1 0
45 C1 18.4101 -2.1816 -2.67625 C.ar 2 UNL1 0
46 O1 19.5876 -1.743 -1.83891 O.3 2 UNL1 0
47 C2 20.5859 -2.87323 -1.75856 C.3 2 UNL1 0
48 C3 21.7975 -2.43351 -0.91546 C.3 2 UNL1 0
49 O2 22.9189 -1.74636 -1.64087 O.3 2 UNL1 0
50 C4 23.1131 -3.18324 -1.18309 C.3 2 UNL1 0
51 C5 17.4008 -1.13978 -3.19392 C.ar 2 UNL1 0
52 C6 16.215 -1.58509 -4.07017 C.ar 2 UNL1 0
53 C7 16.0394 -3.07193 -4.43055 C.ar 2 UNL1 0
54 C8 14.8941 -3.50725 -5.36314 C.3 2 UNL1 0
55 C9 13.5104 -3.23875 -4.7416 C.ar 2 UNL1 0
56 C10 12.7129 -4.40097 -4.12302 C.ar 2 UNL1 0
57 C11 11.271 -4.17151 -3.63553 C.ar 2 UNL1 0
58 C12 10.6199 -2.78278 -3.77731 C.ar 2 UNL1 0
59 O3 9.1784 -2.58749 -3.36895 O.3 2 UNL1 0
60 C13 8.63679 -1.21948 -3.71367 C.3 2 UNL1 0
61 C14 7.12715 -1.24117 -3.40493 C.3 2 UNL1 0
62 O4 7.631 -0.604795 -1.03058 O.3 2 UNL1 0
63 C15 6.93273 -1.60473 -1.92171 C.3 2 UNL1 0
64 C16 11.4293 -1.6098 -4.36 C.ar 2 UNL1 0
65 C17 12.8732 -1.83937 -4.84808 C.ar 2 UNL1 0
66 C18 17.0435 -4.11541 -3.90457 C.ar 2 UNL1 0
67 C19 18.2288 -3.66974 -3.02741 C.ar 2 UNL1 0
68 H1 20.9338 -3.14774 -2.80888 H 2 UNL1 0
69 H2 20.095 -3.77993 -1.2722 H 2 UNL1 0
70 H3 21.5939 -2.10628 0.157411 H 2 UNL1 0
71 H4 23.0806 -3.97892 -1.99884 H 2 UNL1 0
72 H5 23.5789 -3.49914 -0.191713 H 2 UNL1 0
73 H6 17.5315 -0.0388604 -2.92842 H 2 UNL1 0
74 H7 15.4672 -0.813977 -4.45198 H 2 UNL1 0
75 H8 14.9944 -4.62188 -5.58025 H 2 UNL1 0
76 H9 14.9621 -2.92969 -6.34364 H 2 UNL1 0
77 H10 13.1902 -5.43168 -4.02591 H 2 UNL1 0
78 H11 10.6837 -5.02994 -3.16891 H 2 UNL1 0
79 H12 8.80289 -1.0046 -4.82085 H 2 UNL1 0
80 H13 9.16563 -0.431249 -3.08231 H 2 UNL1 0
81 H14 6.63207 -2.04209 -4.04759 H 2 UNL1 0
82 H15 7.3616 -2.6434 -1.72974 H 2 UNL1 0
83 H16 5.82012 -1.60544 -1.67332 H 2 UNL1 0
84 H17 10.9606 -0.572985 -4.43005 H 2 UNL1 0
85 H18 13.4698 -0.973347 -5.28806 H 2 UNL1 0
86 H19 16.9092 -5.21722 -4.16452 H 2 UNL1 0
87 H20 18.9718 -4.44177 -2.63817 H 2 UNL1 0
88 C1 2.35137 2.56895 -6.593 C.ar 3 UNL1 0
89 O1 3.72302 2.78637 -5.99252 O.3 3 UNL1 0
90 C2 4.40897 1.49487 -5.61028 C.3 3 UNL1 0
91 C3 5.9183 1.77922 -5.4575 C.3 3 UNL1 0
92 O2 6.46177 0.0872043 -3.68344 O.3 3 UNL1 0
93 C4 6.73542 0.519686 -5.10406 C.3 3 UNL1 0
94 C5 1.40018 3.76599 -6.78077 C.ar 3 UNL1 0
95 C6 0.0593893 3.5792 -7.51708 C.ar 3 UNL1 0
96 C7 -0.339793 2.19227 -8.05573 C.ar 3 UNL1 0
97 C8 -1.59055 2.04338 -8.94656 C.3 3 UNL1 0
98 C9 -2.835 1.63271 -8.13797 C.ar 3 UNL1 0
99 C10 -3.19105 0.1429 -7.98172 C.ar 3 UNL1 0
100 C11 -4.48016 -0.267883 -7.24679 C.ar 3 UNL1 0
101 C12 -5.41552 0.810443 -6.66996 C.ar 3 UNL1 0
102 O3 -6.66412 0.401458 -5.92604 O.3 3 UNL1 0
103 C13 -7.57711 1.58033 -5.68554 C.3 3 UNL1 0
104 C14 -8.16613 2.09741 -7.01157 C.3 3 UNL1 0
105 O4 -7.50522 3.25753 -7.69922 O.3 3 UNL1 0
106 C15 -8.77729 3.50559 -6.90605 C.3 3 UNL1 0
107 C16 -5.07283 2.30107 -6.84668 C.ar 3 UNL1 0
108 C17 -3.7852 2.71209 -7.58559 C.ar 3 UNL1 0
109 C18 0.583173 0.982364 -7.81286 C.ar 3 UNL1 0
110 C19 1.92394 1.16861 -7.07324 C.ar 3 UNL1 0
111 H1 4.24546 0.716705 -6.42717 H 3 UNL1 0
112 H2 3.97985 1.11375 -4.62529 H 3 UNL1 0
113 H3 6.06591 2.55684 -4.63706 H 3 UNL1 0
114 H4 7.8464 0.74712 -5.22061 H 3 UNL1 0
115 H5 6.44926 -0.329159 -5.80917 H 3 UNL1 0
116 H6 1.68923 4.79105 -6.3742 H 3 UNL1 0
117 H7 -0.63894 4.46823 -7.66393 H 3 UNL1 0
118 H8 -1.38751 1.25305 -9.74265 H 3 UNL1 0
119 H9 -1.81305 3.03742 -9.45839 H 3 UNL1 0
120 H10 -2.50015 -0.656252 -8.41021 H 3 UNL1 0
121 H11 -4.74255 -1.37106 -7.12949 H 3 UNL1 0
122 H12 -6.98623 2.41715 -5.18536 H 3 UNL1 0
123 H13 -8.43326 1.2647 -5.00217 H 3 UNL1 0
124 H14 -8.70909 1.34182 -7.67025 H 3 UNL1 0
125 H15 -8.64942 4.03477 -5.90445 H 3 UNL1 0
126 H16 -9.83248 3.49517 -7.33741 H 3 UNL1 0
127 H17 -5.77185 3.09983 -6.4308 H 3 UNL1 0
128 H18 -3.53565 3.81585 -7.72354 H 3 UNL1 0
129 H19 0.275405 -0.0520948 -8.17997 H 3 UNL1 0
130 H20 2.59892 0.270075 -6.8818 H 3 UNL1 0
131 H 6.32785 2.19431 -6.43708 H 3 UNL1 0
@<TRIPOS>BOND
1 2 3 1
2 3 4 1
3 3 24 1
4 3 25 1
5 4 6 1
6 4 26 1
7 5 6 1
8 6 27 1
9 6 28 1
10 7 8 am
11 7 29 1
12 8 9 am
13 8 30 1
14 9 10 1
15 9 22 am
16 10 11 1
17 10 31 1
18 10 32 1
19 11 12 am
20 11 21 am
21 12 13 am
22 12 33 1
23 13 14 am
24 13 34 1
25 14 15 1
26 14 20 am
27 15 16 1
28 16 17 1
29 16 35 1
30 16 36 1
31 17 18 1
32 17 19 1
33 17 37 1
34 18 19 1
35 19 38 1
36 19 39 1
37 20 21 am
38 20 40 1
39 21 41 1
40 22 23 am
41 22 42 1
42 23 43 1
43 1 2 1
44 1 7 am
45 1 23 am
46 5 44 1
47 46 47 1
48 47 48 1
49 47 68 1
50 47 69 1
51 48 49 1
52 48 50 1
53 48 70 1
54 49 50 1
55 50 71 1
56 50 72 1
57 51 52 am
58 51 73 1
59 52 53 am
60 52 74 1
61 53 54 1
62 53 66 am
63 54 55 1
64 54 75 1
65 54 76 1
66 55 56 am
67 55 65 am
68 56 57 am
69 56 77 1
70 57 58 am
71 57 78 1
72 58 59 1
73 58 64 am
74 59 60 1
75 60 61 1
76 60 79 1
77 60 80 1
78 61 63 1
79 61 81 1
80 62 63 1
81 63 82 1
82 63 83 1
83 64 65 am
84 64 84 1
85 65 85 1
86 66 67 am
87 66 86 1
88 67 87 1
89 45 46 1
90 45 51 am
91 45 67 am
92 62 4 1
93 89 90 1
94 90 91 1
95 90 111 1
96 90 112 1
97 91 93 1
98 91 113 1
99 92 93 1
100 93 114 1
101 93 115 1
102 94 95 am
103 94 116 1
104 95 96 am
105 95 117 1
106 96 97 1
107 96 109 am
108 97 98 1
109 97 118 1
110 97 119 1
111 98 99 am
112 98 108 am
113 99 100 am
114 99 120 1
115 100 101 am
116 100 121 1
117 101 102 1
118 101 107 am
119 102 103 1
120 103 104 1
121 103 122 1
122 103 123 1
123 104 105 1
124 104 106 1
125 104 124 1
126 105 106 1
127 106 125 1
128 106 126 1
129 107 108 am
130 107 127 1
131 108 128 1
132 109 110 am
133 109 129 1
134 110 130 1
135 88 89 1
136 88 94 am
137 88 110 am
138 91 131 1
139 61 92 1
@<TRIPOS>SUBSTRUCTURE
1 UNL1 1 **** **** C19H
2 UNL1 45 **** **** C190
3 UNL1 88 **** **** C191
