# Mol2 file generated by Materials Studio
@<TRIPOS>MOLECULE
mol_1750
131 139 3 0 0 
SMALL
USER_CHARGES


@<TRIPOS>ATOM
1 C1 4.03613 0.295127 -0.591571 C.ar 1 UNL1 0
2 O1 5.45037 0.374459 -0.066442 O.3 1 UNL1 0
3 C2 5.91911 -0.994522 0.364122 C.3 1 UNL1 0
4 C3 7.4554 -0.989651 0.48783 C.3 1 UNL1 0
5 O2 7.48729 1.40064 1.23809 O.3 1 UNL1 0
6 C4 7.92899 -0.00380427 1.57398 C.3 1 UNL1 0
7 C5 3.2359 1.58546 -0.849158 C.ar 1 UNL1 0
8 C6 1.82688 1.50902 -1.46553 C.ar 1 UNL1 0
9 C7 1.20945 0.140887 -1.81108 C.ar 1 UNL1 0
10 C8 -0.149167 0.0713919 -2.53485 C.3 1 UNL1 0
11 C9 -1.2592 -0.390287 -1.57198 C.ar 1 UNL1 0
12 C10 -1.49549 -1.8938 -1.33661 C.ar 1 UNL1 0
13 C11 -2.65144 -2.35974 -0.432171 C.ar 1 UNL1 0
14 C12 -3.57425 -1.32324 0.234751 C.ar 1 UNL1 0
15 O3 -4.69465 -1.78283 1.13822 O.3 1 UNL1 0
16 C13 -5.64563 -0.649897 1.44785 C.3 1 UNL1 0
17 C14 -6.4103 -0.217267 0.182901 C.3 1 UNL1 0
18 O4 -5.9034 0.954128 -0.608707 O.3 1 UNL1 0
19 C15 -7.09036 1.15606 0.31776 C.3 1 UNL1 0
20 C16 -3.35034 0.179188 -0.0153374 C.ar 1 UNL1 0
21 C17 -2.19752 0.645687 -0.924396 C.ar 1 UNL1 0
22 C18 1.99524 -1.15206 -1.52033 C.ar 1 UNL1 0
23 C19 3.40548 -1.07487 -0.903427 C.ar 1 UNL1 0
24 H1 5.60209 -1.76703 -0.411982 H 1 UNL1 0
25 H2 5.45533 -1.25528 1.37235 H 1 UNL1 0
26 H3 7.821 -2.03954 0.740161 H 1 UNL1 0
27 H4 9.06653 -0.0353358 1.64183 H 1 UNL1 0
28 H5 7.48276 -0.303056 2.57943 H 1 UNL1 0
29 H6 3.68752 2.59782 -0.583113 H 1 UNL1 0
30 H7 1.23994 2.46544 -1.66641 H 1 UNL1 0
31 H8 -0.0752201 -0.663604 -3.40313 H 1 UNL1 0
32 H9 -0.418243 1.10327 -2.93787 H 1 UNL1 0
33 H10 -0.814536 -2.66223 -1.832 H 1 UNL1 0
34 H11 -2.82436 -3.4727 -0.256057 H 1 UNL1 0
35 H12 -5.05451 0.237325 1.85161 H 1 UNL1 0
36 H13 -6.39798 -0.98944 2.23416 H 1 UNL1 0
37 H14 -6.97655 -1.02624 -0.38678 H 1 UNL1 0
38 H15 -6.88287 1.72658 1.28267 H 1 UNL1 0
39 H16 -8.18487 1.06989 0.0108027 H 1 UNL1 0
40 H17 -4.03777 0.946847 0.472258 H 1 UNL1 0
41 H18 -2.03886 1.75789 -1.11785 H 1 UNL1 0
42 H19 1.53355 -2.1661 -1.76151 H 1 UNL1 0
43 H20 3.98211 -2.03205 -0.677819 H 1 UNL1 0
44 H 8.28253 2.11822 1.52925 H 1 UNL1 0
45 C1 18.8729 -2.27944 -2.97205 C.ar 2 UNL1 0
46 O1 20.0045 -1.84182 -2.07449 O.3 2 UNL1 0
47 C2 20.7818 -3.06564 -1.65494 C.3 2 UNL1 0
48 C3 21.909 -2.6502 -0.693204 C.3 2 UNL1 0
49 O2 22.6755 -1.5956 -1.46601 O.3 2 UNL1 0
50 C4 23.3883 -2.85797 -1.06954 C.3 2 UNL1 0
51 C5 17.8816 -1.24059 -3.5263 C.ar 2 UNL1 0
52 C6 16.7026 -1.69595 -4.40721 C.ar 2 UNL1 0
53 C7 16.5112 -3.19128 -4.72101 C.ar 2 UNL1 0
54 C8 15.3263 -3.64684 -5.58985 C.3 2 UNL1 0
55 C9 14.0823 -3.75289 -4.68965 C.ar 2 UNL1 0
56 C10 13.6708 -5.11584 -4.10262 C.ar 2 UNL1 0
57 C11 12.3999 -5.22977 -3.23919 C.ar 2 UNL1 0
58 C12 11.5336 -3.9838 -2.97765 C.ar 2 UNL1 0
59 O3 10.2515 -4.10338 -2.18965 O.3 2 UNL1 0
60 C13 9.56952 -2.75693 -2.19804 C.3 2 UNL1 0
61 C14 8.096 -2.9001 -1.77607 C.3 2 UNL1 0
62 O4 7.99822 -0.57582 -0.85961 O.3 2 UNL1 0
63 C15 7.42017 -1.52147 -1.8846 C.3 2 UNL1 0
64 C16 11.9443 -2.62206 -3.5657 C.ar 2 UNL1 0
65 C17 13.2151 -2.5075 -4.42834 C.ar 2 UNL1 0
66 C18 17.5284 -4.22493 -4.20384 C.ar 2 UNL1 0
67 C19 18.7065 -3.76854 -3.32322 C.ar 2 UNL1 0
68 H1 21.2322 -3.56421 -2.57589 H 2 UNL1 0
69 H2 20.0835 -3.79769 -1.12948 H 2 UNL1 0
70 H3 21.6474 -2.44469 0.397174 H 2 UNL1 0
71 H4 23.5915 -3.6026 -1.9085 H 2 UNL1 0
72 H5 24.0065 -2.99167 -0.121103 H 2 UNL1 0
73 H6 18.0194 -0.134883 -3.28537 H 2 UNL1 0
74 H7 15.9733 -0.926246 -4.82583 H 2 UNL1 0
75 H8 15.5559 -4.66477 -6.04889 H 2 UNL1 0
76 H9 15.1468 -2.88403 -6.41779 H 2 UNL1 0
77 H10 14.3065 -6.0398 -4.30702 H 2 UNL1 0
78 H11 12.1013 -6.23604 -2.79436 H 2 UNL1 0
79 H12 9.62005 -2.31507 -3.24771 H 2 UNL1 0
80 H13 10.0986 -2.0584 -1.46887 H 2 UNL1 0
81 H14 8.04025 -3.27022 -0.699273 H 2 UNL1 0
82 H15 6.30012 -1.63463 -1.7049 H 2 UNL1 0
83 H16 7.59422 -1.09393 -2.92696 H 2 UNL1 0
84 H17 11.3079 -1.69826 -3.36278 H 2 UNL1 0
85 H18 13.5139 -1.50133 -4.87329 H 2 UNL1 0
86 H19 17.4089 -5.32625 -4.47292 H 2 UNL1 0
87 H20 19.4552 -4.53375 -2.93147 H 2 UNL1 0
88 H 7.57422 -3.64421 -2.46429 H 2 UNL1 0
89 C1 1.40533 3.11684 -6.86051 C.ar 3 UNL1 0
90 O1 2.51532 3.48952 -5.90806 O.3 3 UNL1 0
91 C2 3.27426 2.25065 -5.50129 C.3 3 UNL1 0
92 C3 4.41505 2.65975 -4.55182 C.3 3 UNL1 0
93 O2 5.06137 3.79487 -5.32314 O.3 3 UNL1 0
94 C4 5.89332 2.59271 -4.98823 C.3 3 UNL1 0
95 C5 0.468766 4.20914 -7.4061 C.ar 3 UNL1 0
96 C6 -0.679595 3.83361 -8.36065 C.ar 3 UNL1 0
97 C7 -0.900126 2.36218 -8.7598 C.ar 3 UNL1 0
98 C8 -2.06372 1.98111 -9.69528 C.3 3 UNL1 0
99 C9 -3.26205 1.60139 -8.80782 C.ar 3 UNL1 0
100 C10 -3.46231 0.139581 -8.36819 C.ar 3 UNL1 0
101 C11 -4.63547 -0.229399 -7.44394 C.ar 3 UNL1 0
102 C12 -5.60784 0.860897 -6.96133 C.ar 3 UNL1 0
103 O3 -6.69673 0.500126 -5.98072 O.3 3 UNL1 0
104 C13 -7.52108 1.69748 -5.57148 C.3 3 UNL1 0
105 C14 -8.48791 2.12227 -6.69321 C.3 3 UNL1 0
106 O4 -8.13428 3.26801 -7.59671 O.3 3 UNL1 0
107 C15 -9.10393 3.51274 -6.45397 C.3 3 UNL1 0
108 C16 -5.44442 2.31248 -7.45086 C.ar 3 UNL1 0
109 C17 -4.27664 2.67976 -8.38493 C.ar 3 UNL1 0
110 C18 0.0660599 1.27567 -8.25145 C.ar 3 UNL1 0
111 C19 1.21546 1.65139 -7.29618 C.ar 3 UNL1 0
112 H1 3.70926 1.74748 -6.42714 H 3 UNL1 0
113 H2 2.56847 1.52983 -4.97035 H 3 UNL1 0
114 H3 4.17781 2.81492 -3.44763 H 3 UNL1 0
115 H4 6.12792 1.88956 -5.85434 H 3 UNL1 0
116 H5 6.55722 2.49081 -4.06712 H 3 UNL1 0
117 H6 0.625535 5.29692 -7.10318 H 3 UNL1 0
118 H7 -1.36696 4.64461 -8.77224 H 3 UNL1 0
119 H8 -1.76426 1.09113 -10.3417 H 3 UNL1 0
120 H9 -2.32451 2.87046 -10.3591 H 3 UNL1 0
121 H10 -2.74183 -0.667505 -8.72752 H 3 UNL1 0
122 H11 -4.78464 -1.31108 -7.11635 H 3 UNL1 0
123 H12 -6.82405 2.56647 -5.32938 H 3 UNL1 0
124 H13 -8.13257 1.43901 -4.64472 H 3 UNL1 0
125 H14 -9.17339 1.31746 -7.11982 H 3 UNL1 0
126 H15 -8.69489 4.097 -5.56463 H 3 UNL1 0
127 H16 -10.2393 3.44357 -6.53011 H 3 UNL1 0
128 H17 -6.18719 3.11212 -7.12152 H 3 UNL1 0
129 H18 -4.1629 3.74909 -8.76334 H 3 UNL1 0
130 H19 -0.0689357 0.19298 -8.58185 H 3 UNL1 0
131 H20 1.92435 0.845229 -6.91253 H 3 UNL1 0
@<TRIPOS>BOND
1 2 3 1
2 3 4 1
3 3 24 1
4 3 25 1
5 4 6 1
6 4 26 1
7 5 6 1
8 6 27 1
9 6 28 1
10 7 8 am
11 7 29 1
12 8 9 am
13 8 30 1
14 9 10 1
15 9 22 am
16 10 11 1
17 10 31 1
18 10 32 1
19 11 12 am
20 11 21 am
21 12 13 am
22 12 33 1
23 13 14 am
24 13 34 1
25 14 15 1
26 14 20 am
27 15 16 1
28 16 17 1
29 16 35 1
30 16 36 1
31 17 18 1
32 17 19 1
33 17 37 1
34 18 19 1
35 19 38 1
36 19 39 1
37 20 21 am
38 20 40 1
39 21 41 1
40 22 23 am
41 22 42 1
42 23 43 1
43 1 2 1
44 1 7 am
45 1 23 am
46 5 44 1
47 46 47 1
48 47 48 1
49 47 68 1
50 47 69 1
51 48 49 1
52 48 50 1
53 48 70 1
54 49 50 1
55 50 71 1
56 50 72 1
57 51 52 am
58 51 73 1
59 52 53 am
60 52 74 1
61 53 54 1
62 53 66 am
63 54 55 1
64 54 75 1
65 54 76 1
66 55 56 am
67 55 65 am
68 56 57 am
69 56 77 1
70 57 58 am
71 57 78 1
72 58 59 1
73 58 64 am
74 59 60 1
75 60 61 1
76 60 79 1
77 60 80 1
78 61 63 1
79 61 81 1
80 62 63 1
81 63 82 1
82 63 83 1
83 64 65 am
84 64 84 1
85 65 85 1
86 66 67 am
87 66 86 1
88 67 87 1
89 45 46 1
90 45 51 am
91 45 67 am
92 61 88 1
93 62 4 1
94 90 91 1
95 91 92 1
96 91 112 1
97 91 113 1
98 92 93 1
99 92 94 1
100 92 114 1
101 93 94 1
102 94 115 1
103 94 116 1
104 95 96 am
105 95 117 1
106 96 97 am
107 96 118 1
108 97 98 1
109 97 110 am
110 98 99 1
111 98 119 1
112 98 120 1
113 99 100 am
114 99 109 am
115 100 101 am
116 100 121 1
117 101 102 am
118 101 122 1
119 102 103 1
120 102 108 am
121 103 104 1
122 104 105 1
123 104 123 1
124 104 124 1
125 105 106 1
126 105 107 1
127 105 125 1
128 106 107 1
129 107 126 1
130 107 127 1
131 108 109 am
132 108 128 1
133 109 129 1
134 110 111 am
135 110 130 1
136 111 131 1
137 89 90 1
138 89 95 am
139 89 111 am
@<TRIPOS>SUBSTRUCTURE
1 UNL1 1 **** **** C19H
2 UNL1 45 **** **** C190
3 UNL1 89 **** **** C191
