# Mol2 file generated by Materials Studio
@<TRIPOS>MOLECULE
"mol_EP-4088S"
152 163 3 0 0 
SMALL
USER_CHARGES


@<TRIPOS>ATOM
1 C1 2.74898 -3.48375 4.63232 C.3 1 UNL1 0
2 C2 4.25012 -3.65073 4.93822 C.3 1 UNL1 0
3 O1 4.94381 -2.31703 5.09724 O.3 1 UNL1 0
4 C3 6.27086 -2.43548 4.38636 C.3 1 UNL1 0
5 C4 7.15804 -1.18133 4.51216 C.3 1 UNL1 0
6 C5 6.32008 0.0424036 4.0982 C.3 1 UNL1 0
7 O2 5.53827 -0.310804 2.85631 O.3 1 UNL1 0
8 C6 2.12481 -4.89246 4.61963 C.3 1 UNL1 0
9 C7 1.40975 -4.94846 5.98423 C.3 1 UNL1 0
10 C8 0.102644 -4.15149 5.82324 C.3 1 UNL1 0
11 C9 0.585822 -2.7126 5.60735 C.3 1 UNL1 0
12 C10 0.111274 -2.35469 4.18773 C.3 1 UNL1 0
13 C11 -1.25607 -3.06252 4.18363 C.3 1 UNL1 0
14 C12 -1.94397 -3.05061 2.80558 C.3 1 UNL1 0
15 O3 -3.28189 -3.74408 2.88525 O.3 1 UNL1 0
16 C13 -4.17505 -2.9237 3.78447 C.3 1 UNL1 0
17 C14 -5.59406 -3.52085 3.80705 C.3 1 UNL1 0
18 O4 -6.44191 -3.09314 4.97164 O.3 1 UNL1 0
19 C15 -5.93315 -4.52423 4.92155 C.3 1 UNL1 0
20 C16 -0.763414 -4.46573 4.58765 C.3 1 UNL1 0
21 C17 2.10174 -2.80725 5.84974 C.3 1 UNL1 0
22 C18 2.21753 -3.96774 6.86153 C.3 1 UNL1 0
23 H1 2.56084 -2.91322 3.66346 H 1 UNL1 0
24 H2 4.36967 -4.24982 5.90072 H 1 UNL1 0
25 H3 4.72791 -4.22749 4.07877 H 1 UNL1 0
26 H4 6.0774 -2.63771 3.28125 H 1 UNL1 0
27 H5 6.85817 -3.3104 4.8213 H 1 UNL1 0
28 H6 8.04811 -1.28081 3.80684 H 1 UNL1 0
29 H7 7.01026 0.922823 3.87887 H 1 UNL1 0
30 H8 5.60551 0.317013 4.94294 H 1 UNL1 0
31 H9 1.37305 -4.99069 3.76827 H 1 UNL1 0
32 H10 2.90417 -5.72263 4.56466 H 1 UNL1 0
33 H11 1.28549 -5.99441 6.42028 H 1 UNL1 0
34 H12 -0.523147 -4.2208 6.7736 H 1 UNL1 0
35 H13 0.106224 -2.01588 6.37166 H 1 UNL1 0
36 H14 0.804705 -2.80068 3.40043 H 1 UNL1 0
37 H15 0.0487874 -1.22129 4.0824 H 1 UNL1 0
38 H16 -1.94147 -2.62671 4.98357 H 1 UNL1 0
39 H17 -1.28343 -3.58993 2.049 H 1 UNL1 0
40 H18 -2.10165 -1.97294 2.46888 H 1 UNL1 0
41 H19 -4.22159 -1.85288 3.39616 H 1 UNL1 0
42 H20 -3.75191 -2.92399 4.84303 H 1 UNL1 0
43 H21 -6.1176 -3.65918 2.80388 H 1 UNL1 0
44 H22 -5.0864 -4.78151 5.64019 H 1 UNL1 0
45 H23 -6.50085 -5.40761 4.47775 H 1 UNL1 0
46 H24 -1.64168 -5.1351 4.87084 H 1 UNL1 0
47 H25 -0.119539 -4.96231 3.78863 H 1 UNL1 0
48 H26 2.59685 -1.83403 6.17732 H 1 UNL1 0
49 H27 3.29719 -4.30823 6.99567 H 1 UNL1 0
50 H28 1.6886 -3.82859 7.86177 H 1 UNL1 0
51 C1 1.85326 -0.96256 -0.328961 C.3 2 UNL1 0
52 C2 3.18383 -1.65638 0.0178727 C.3 2 UNL1 0
53 O1 4.27453 -0.664006 0.338178 O.3 2 UNL1 0
54 C3 5.49847 -1.46585 0.713331 C.3 2 UNL1 0
55 C4 6.40286 -0.672456 1.67499 C.3 2 UNL1 0
56 C5 6.96785 0.60276 1.02218 C.3 2 UNL1 0
57 O2 5.83418 1.50111 0.589188 O.3 2 UNL1 0
58 C6 0.791957 -2.07719 -0.321879 C.3 2 UNL1 0
59 C7 0.182619 -1.92011 1.08601 C.3 2 UNL1 0
60 C8 -0.82487 -0.762679 0.975009 C.3 2 UNL1 0
61 C9 0.0615191 0.465242 0.727921 C.3 2 UNL1 0
62 C10 -0.372779 0.98768 -0.653146 C.3 2 UNL1 0
63 C11 -1.88498 0.694165 -0.589381 C.3 2 UNL1 0
64 C12 -2.59571 0.928687 -1.93551 C.3 2 UNL1 0
65 O3 -4.03961 0.493687 -1.85013 O.3 2 UNL1 0
66 C13 -4.7637 1.3241 -0.817983 C.3 2 UNL1 0
67 C14 -6.25052 0.920514 -0.793629 C.3 2 UNL1 0
68 O4 -6.99819 1.19083 0.481199 O.3 2 UNL1 0
69 C15 -6.63796 -0.244097 0.132682 C.3 2 UNL1 0
70 C16 -1.79386 -0.798396 -0.222351 C.3 2 UNL1 0
71 C17 1.48613 -0.0954822 0.885851 C.3 2 UNL1 0
72 C18 1.28564 -1.2277 1.91469 C.3 2 UNL1 0
73 H1 1.88926 -0.37846 -1.30729 H 2 UNL1 0
74 H2 3.02442 -2.33702 0.918381 H 2 UNL1 0
75 H3 3.4974 -2.29025 -0.876267 H 2 UNL1 0
76 H4 6.08519 -1.71908 -0.230719 H 2 UNL1 0
77 H5 5.17729 -2.43201 1.22615 H 2 UNL1 0
78 H6 7.26305 -1.33524 2.02198 H 2 UNL1 0
79 H7 7.59387 0.317667 0.113105 H 2 UNL1 0
80 H8 7.62171 1.15679 1.77393 H 2 UNL1 0
81 H9 0.0049539 -1.88965 -1.12503 H 2 UNL1 0
82 H10 1.23661 -3.1214 -0.429152 H 2 UNL1 0
83 H11 -0.23268 -2.87905 1.54158 H 2 UNL1 0
84 H12 -1.40323 -0.644953 1.95032 H 2 UNL1 0
85 H13 -0.136933 1.25633 1.52441 H 2 UNL1 0
86 H14 0.123337 0.39194 -1.48895 H 2 UNL1 0
87 H15 -0.119822 2.0961 -0.736881 H 2 UNL1 0
88 H16 -2.38245 1.29076 0.245011 H 2 UNL1 0
89 H17 -2.06875 0.329524 -2.74971 H 2 UNL1 0
90 H18 -2.55647 2.0374 -2.19785 H 2 UNL1 0
91 H19 -4.6733 2.42841 -1.08617 H 2 UNL1 0
92 H20 -4.30155 1.14246 0.208188 H 2 UNL1 0
93 H21 -6.8324 1.02396 -1.76847 H 2 UNL1 0
94 H22 -5.78986 -0.709526 0.735761 H 2 UNL1 0
95 H23 -7.31043 -0.971167 -0.431898 H 2 UNL1 0
96 H24 -2.81291 -1.19902 0.0948744 H 2 UNL1 0
97 H25 -1.34846 -1.44016 -1.05263 H 2 UNL1 0
98 H26 2.27293 0.67716 1.17495 H 2 UNL1 0
99 H27 2.2149 -1.88041 2.01494 H 2 UNL1 0
100 H28 0.86543 -0.92746 2.93099 H 2 UNL1 0
101 H 5.8481 2.43192 1.19375 H 2 UNL1 0
102 C1 17.0407 1.216 6.60764 C.3 3 UNL1 0
103 C2 18.5375 0.935331 6.83846 C.3 3 UNL1 0
104 O1 19.3806 2.10559 6.39043 O.3 3 UNL1 0
105 C3 20.8365 1.74126 6.56508 C.3 3 UNL1 0
106 C4 21.7344 2.88545 6.05813 C.3 3 UNL1 0
107 C5 23.159 2.91623 6.63716 C.3 3 UNL1 0
108 O2 22.1209 3.94857 7.04607 O.3 3 UNL1 0
109 C6 16.2764 -0.00535606 7.15004 C.3 3 UNL1 0
110 C7 15.6269 0.546324 8.43284 C.3 3 UNL1 0
111 C8 14.4449 1.41819 7.97332 C.3 3 UNL1 0
112 C9 15.1205 2.65263 7.36615 C.3 3 UNL1 0
113 C10 14.5703 2.73139 5.93115 C.3 3 UNL1 0
114 C11 13.1537 2.15102 6.11397 C.3 3 UNL1 0
115 C12 12.4706 1.91467 4.7516 C.3 3 UNL1 0
116 O3 11.1508 1.1822 4.85107 O.3 3 UNL1 0
117 C13 10.0917 1.97102 5.58483 C.3 3 UNL1 0
118 C14 8.74423 1.22867 5.4619 C.3 3 UNL1 0
119 O4 7.66313 -1.02654 5.92924 O.3 3 UNL1 0
120 C15 8.92418 -0.195613 6.0184 C.3 3 UNL1 0
121 C16 13.5643 0.855825 6.84037 C.3 3 UNL1 0
122 C17 16.621 2.36161 7.54588 C.3 3 UNL1 0
123 C18 16.6377 1.61678 8.8981 C.3 3 UNL1 0
124 H1 16.7993 1.43394 5.51501 H 3 UNL1 0
125 H2 18.7173 0.746091 7.94818 H 3 UNL1 0
126 H3 18.8317 0.00643768 6.24667 H 3 UNL1 0
127 H4 21.0623 0.79327 5.97355 H 3 UNL1 0
128 H5 21.0525 1.55809 7.66933 H 3 UNL1 0
129 H6 21.6067 3.20565 4.97151 H 3 UNL1 0
130 H7 23.9791 3.28009 5.93393 H 3 UNL1 0
131 H8 23.3664 1.93996 7.18804 H 3 UNL1 0
132 H9 15.4776 -0.339641 6.40855 H 3 UNL1 0
133 H10 16.9647 -0.874274 7.41602 H 3 UNL1 0
134 H11 15.3669 -0.240555 9.21568 H 3 UNL1 0
135 H12 13.8011 1.71651 8.86562 H 3 UNL1 0
136 H13 14.829 3.58714 7.95036 H 3 UNL1 0
137 H14 15.1857 2.08014 5.22634 H 3 UNL1 0
138 H15 14.5717 3.81682 5.58268 H 3 UNL1 0
139 H16 12.5174 2.81747 6.78527 H 3 UNL1 0
140 H17 13.175 1.31182 4.08832 H 3 UNL1 0
141 H18 12.2646 2.9178 4.25068 H 3 UNL1 0
142 H19 9.9996 3.00906 5.12267 H 3 UNL1 0
143 H20 10.3815 2.06615 6.68326 H 3 UNL1 0
144 H21 8.43381 1.17605 4.36624 H 3 UNL1 0
145 H22 9.2447 -0.12739 7.11029 H 3 UNL1 0
146 H23 9.73719 -0.734313 5.42814 H 3 UNL1 0
147 H24 12.6505 0.322279 7.26454 H 3 UNL1 0
148 H25 14.1824 0.148776 6.19406 H 3 UNL1 0
149 H26 17.2923 3.28199 7.50194 H 3 UNL1 0
150 H27 17.6606 1.16645 9.12283 H 3 UNL1 0
151 H28 16.2128 2.17588 9.79611 H 3 UNL1 0
152 H 7.94836 1.78425 6.05983 H 3 UNL1 0
@<TRIPOS>BOND
1 2 3 1
2 2 24 1
3 2 25 1
4 3 4 1
5 4 5 1
6 4 26 1
7 4 27 1
8 5 6 1
9 5 28 1
10 6 7 1
11 6 29 1
12 6 30 1
13 8 9 1
14 8 31 1
15 8 32 1
16 9 10 1
17 9 22 1
18 9 33 1
19 10 11 1
20 10 20 1
21 10 34 1
22 11 12 1
23 11 21 1
24 11 35 1
25 12 13 1
26 12 36 1
27 12 37 1
28 13 14 1
29 13 20 1
30 13 38 1
31 14 15 1
32 14 39 1
33 14 40 1
34 15 16 1
35 16 17 1
36 16 41 1
37 16 42 1
38 17 18 1
39 17 19 1
40 17 43 1
41 18 19 1
42 19 44 1
43 19 45 1
44 20 46 1
45 20 47 1
46 21 22 1
47 21 48 1
48 22 49 1
49 22 50 1
50 1 23 1
51 1 2 1
52 1 21 1
53 1 8 1
54 52 53 1
55 52 74 1
56 52 75 1
57 53 54 1
58 54 55 1
59 54 76 1
60 54 77 1
61 55 56 1
62 55 78 1
63 56 57 1
64 56 79 1
65 56 80 1
66 58 59 1
67 58 81 1
68 58 82 1
69 59 60 1
70 59 72 1
71 59 83 1
72 60 61 1
73 60 70 1
74 60 84 1
75 61 62 1
76 61 71 1
77 61 85 1
78 62 63 1
79 62 86 1
80 62 87 1
81 63 64 1
82 63 70 1
83 63 88 1
84 64 65 1
85 64 89 1
86 64 90 1
87 65 66 1
88 66 67 1
89 66 91 1
90 66 92 1
91 67 68 1
92 67 69 1
93 67 93 1
94 68 69 1
95 69 94 1
96 69 95 1
97 70 96 1
98 70 97 1
99 71 72 1
100 71 98 1
101 72 99 1
102 72 100 1
103 51 73 1
104 51 52 1
105 51 71 1
106 51 58 1
107 57 101 1
108 55 7 1
109 103 104 1
110 103 125 1
111 103 126 1
112 104 105 1
113 105 106 1
114 105 127 1
115 105 128 1
116 106 107 1
117 106 108 1
118 106 129 1
119 107 108 1
120 107 130 1
121 107 131 1
122 109 110 1
123 109 132 1
124 109 133 1
125 110 111 1
126 110 123 1
127 110 134 1
128 111 112 1
129 111 121 1
130 111 135 1
131 112 113 1
132 112 122 1
133 112 136 1
134 113 114 1
135 113 137 1
136 113 138 1
137 114 115 1
138 114 121 1
139 114 139 1
140 115 116 1
141 115 140 1
142 115 141 1
143 116 117 1
144 117 118 1
145 117 142 1
146 117 143 1
147 118 120 1
148 118 144 1
149 119 120 1
150 120 145 1
151 120 146 1
152 121 147 1
153 121 148 1
154 122 123 1
155 122 149 1
156 123 150 1
157 123 151 1
158 102 124 1
159 102 103 1
160 102 122 1
161 102 109 1
162 118 152 1
163 119 5 1
@<TRIPOS>SUBSTRUCTURE
1 UNL1 1 **** **** C18H
2 UNL1 51 **** **** C180
3 UNL1 102 **** **** C181
