# Mol2 file generated by Materials Studio
@<TRIPOS>MOLECULE
"mol_EP-4088S"
152 163 3 0 0 
SMALL
USER_CHARGES


@<TRIPOS>ATOM
1 C1 2.36463 -4.39322 4.3772 C.3 1 UNL1 0
2 C2 3.87213 -4.70933 4.30822 C.3 1 UNL1 0
3 O1 4.69725 -3.56697 3.75848 O.3 1 UNL1 0
4 C3 6.14044 -3.89359 4.06965 C.3 1 UNL1 0
5 C4 7.17656 -2.93601 3.4433 C.3 1 UNL1 0
6 C5 6.85245 -1.45767 3.72497 C.3 1 UNL1 0
7 O2 5.72665 -1.11054 2.78635 O.3 1 UNL1 0
8 C6 1.67943 -5.65431 4.93723 C.3 1 UNL1 0
9 C7 0.981341 -5.15897 6.21687 C.3 1 UNL1 0
10 C8 -0.172428 -4.22248 5.8231 C.3 1 UNL1 0
11 C9 0.563406 -2.96692 5.34288 C.3 1 UNL1 0
12 C10 0.00833619 -2.71483 3.93178 C.3 1 UNL1 0
13 C11 -1.42523 -3.25957 4.059 C.3 1 UNL1 0
14 C12 -2.13059 -3.32788 2.69207 C.3 1 UNL1 0
15 O3 -3.5313 -3.86896 2.83309 O.3 1 UNL1 0
16 C13 -4.34141 -2.86134 3.61155 C.3 1 UNL1 0
17 C14 -5.80644 -3.3277 3.69311 C.3 1 UNL1 0
18 O4 -6.60833 -2.77239 4.83512 O.3 1 UNL1 0
19 C15 -6.17923 -4.22985 4.88126 C.3 1 UNL1 0
20 C16 -1.0682 -4.64061 4.64146 C.3 1 UNL1 0
21 C17 2.05469 -3.33197 5.45174 C.3 1 UNL1 0
22 C18 2.04211 -4.16939 6.7488 C.3 1 UNL1 0
23 H1 1.94574 -4.1 3.3583 H 1 UNL1 0
24 H2 4.2437 -4.9605 5.35629 H 1 UNL1 0
25 H3 4.00105 -5.62588 3.6427 H 1 UNL1 0
26 H4 6.35878 -4.95157 3.70548 H 1 UNL1 0
27 H5 6.30347 -3.85807 5.19737 H 1 UNL1 0
28 H6 7.20087 -3.10202 2.31572 H 1 UNL1 0
29 H7 7.76233 -0.807319 3.50418 H 1 UNL1 0
30 H8 6.5396 -1.33818 4.81467 H 1 UNL1 0
31 H9 0.911202 -6.0515 4.19448 H 1 UNL1 0
32 H10 2.43046 -6.46903 5.20514 H 1 UNL1 0
33 H11 0.693322 -5.98381 6.94917 H 1 UNL1 0
34 H12 -0.811596 -3.97977 6.73533 H 1 UNL1 0
35 H13 0.323121 -2.0849 6.02399 H 1 UNL1 0
36 H14 0.597079 -3.3064 3.15523 H 1 UNL1 0
37 H15 0.0462315 -1.5988 3.7023 H 1 UNL1 0
38 H16 -2.03241 -2.64549 4.8032 H 1 UNL1 0
39 H17 -1.53475 -4.00606 1.9959 H 1 UNL1 0
40 H18 -2.18626 -2.2826 2.24053 H 1 UNL1 0
41 H19 -4.29369 -1.84991 3.08777 H 1 UNL1 0
42 H20 -3.91599 -2.76379 4.66469 H 1 UNL1 0
43 H21 -6.35333 -3.50702 2.70905 H 1 UNL1 0
44 H22 -5.33493 -4.48209 5.60454 H 1 UNL1 0
45 H23 -6.80182 -5.10959 4.50975 H 1 UNL1 0
46 H24 -2.00219 -5.18032 5.0102 H 1 UNL1 0
47 H25 -0.472345 -5.30029 3.92775 H 1 UNL1 0
48 H26 2.76594 -2.44115 5.46394 H 1 UNL1 0
49 H27 3.04426 -4.67993 6.93492 H 1 UNL1 0
50 H28 1.64619 -3.65557 7.68626 H 1 UNL1 0
51 H 8.20858 -3.15884 3.8733 H 1 UNL1 0
52 C1 1.60844 -0.837717 -0.191143 C.3 2 UNL1 0
53 C2 2.92642 -1.55549 0.139154 C.3 2 UNL1 0
54 O1 4.09019 -0.613445 0.310666 O.3 2 UNL1 0
55 C3 5.27152 -1.54834 0.382715 C.3 2 UNL1 0
56 C4 6.34171 -1.13106 1.40574 C.3 2 UNL1 0
57 C5 6.97428 0.23191 1.06122 C.3 2 UNL1 0
58 O2 5.91078 1.30307 1.08297 O.3 2 UNL1 0
59 C6 0.557332 -1.95146 -0.0566856 C.3 2 UNL1 0
60 C7 -0.0225263 -1.66319 1.3418 C.3 2 UNL1 0
61 C8 -1.03351 -0.519914 1.14857 C.3 2 UNL1 0
62 C9 -0.146251 0.67509 0.770751 C.3 2 UNL1 0
63 C10 -0.572068 1.02418 -0.665861 C.3 2 UNL1 0
64 C11 -2.08558 0.742853 -0.591724 C.3 2 UNL1 0
65 C12 -2.75653 0.782688 -1.97729 C.3 2 UNL1 0
66 O3 -4.19188 0.330099 -1.87014 O.3 2 UNL1 0
67 C13 -4.97339 1.29861 -1.01793 C.3 2 UNL1 0
68 C14 -6.43569 0.821985 -0.942785 C.3 2 UNL1 0
69 O4 -7.22087 1.25411 0.263016 O.3 2 UNL1 0
70 C15 -6.7598 -0.191399 0.166934 C.3 2 UNL1 0
71 C16 -2.00867 -0.689455 -0.0330092 C.3 2 UNL1 0
72 C17 1.28262 0.131376 0.95758 C.3 2 UNL1 0
73 C18 1.10727 -0.911305 2.07869 C.3 2 UNL1 0
74 H1 1.60997 -0.33913 -1.21633 H 2 UNL1 0
75 H2 2.78996 -2.15071 1.1018 H 2 UNL1 0
76 H3 3.14631 -2.27985 -0.713228 H 2 UNL1 0
77 H4 5.75479 -1.60606 -0.648169 H 2 UNL1 0
78 H5 4.91429 -2.59008 0.677268 H 2 UNL1 0
79 H6 7.16691 -1.91755 1.39668 H 2 UNL1 0
80 H7 7.44162 0.181915 0.0226161 H 2 UNL1 0
81 H8 7.77968 0.481823 1.82833 H 2 UNL1 0
82 H9 -0.247604 -1.84532 -0.856943 H 2 UNL1 0
83 H10 1.00696 -2.99892 -0.0731064 H 2 UNL1 0
84 H11 -0.42912 -2.57602 1.89046 H 2 UNL1 0
85 H12 -1.60092 -0.313315 2.11551 H 2 UNL1 0
86 H13 -0.336501 1.55421 1.47115 H 2 UNL1 0
87 H14 -0.0669269 0.332776 -1.41845 H 2 UNL1 0
88 H15 -0.319368 2.11445 -0.882788 H 2 UNL1 0
89 H16 -2.60322 1.44677 0.140502 H 2 UNL1 0
90 H17 -2.19453 0.0925062 -2.68961 H 2 UNL1 0
91 H18 -2.72892 1.84793 -2.38238 H 2 UNL1 0
92 H19 -4.93344 2.33761 -1.48535 H 2 UNL1 0
93 H20 -4.52312 1.33268 0.0288269 H 2 UNL1 0
94 H21 -7.00291 0.719072 -1.92629 H 2 UNL1 0
95 H22 -5.89267 -0.487977 0.844966 H 2 UNL1 0
96 H23 -7.37274 -1.04842 -0.268274 H 2 UNL1 0
97 H24 -3.0313 -1.03316 0.335351 H 2 UNL1 0
98 H25 -1.57706 -1.437 -0.777656 H 2 UNL1 0
99 H26 2.07676 0.924337 1.15795 H 2 UNL1 0
100 H27 2.0366 -1.5593 2.20534 H 2 UNL1 0
101 H28 0.718242 -0.526366 3.07873 H 2 UNL1 0
102 H 6.26531 2.16425 1.68694 H 2 UNL1 0
103 C1 17.3988 1.24119 6.71757 C.3 3 UNL1 0
104 C2 18.8638 0.92319 6.78857 C.3 3 UNL1 0
105 O1 19.6638 1.95919 6.33557 O.3 3 UNL1 0
106 C3 20.9908 1.55119 6.44757 C.3 3 UNL1 0
107 C4 21.9588 2.61719 5.97557 C.3 3 UNL1 0
108 C5 23.0848 3.00619 6.93257 C.3 3 UNL1 0
109 O2 21.9658 3.84119 6.59957 O.3 3 UNL1 0
110 C6 16.5848 0.0711897 7.22757 C.3 3 UNL1 0
111 C7 15.8318 0.59119 8.43757 C.3 3 UNL1 0
112 C8 14.7988 1.61219 8.12157 C.3 3 UNL1 0
113 C9 15.6108 2.77319 7.58557 C.3 3 UNL1 0
114 C10 15.0698 3.05519 6.24557 C.3 3 UNL1 0
115 C11 13.6148 2.57619 6.37657 C.3 3 UNL1 0
116 C12 12.9558 2.48419 5.03057 C.3 3 UNL1 0
117 O3 11.6538 2.06019 5.07857 O.3 3 UNL1 0
118 C13 10.8288 2.86919 5.81057 C.3 3 UNL1 0
119 C14 9.39481 2.34919 5.82457 C.3 3 UNL1 0
120 O4 8.59881 3.30019 6.64257 O.3 3 UNL1 0
121 C15 8.73881 1.98619 7.09957 C.3 3 UNL1 0
122 C16 13.8128 1.25019 7.05057 C.3 3 UNL1 0
123 C17 17.0518 2.33519 7.66557 C.3 3 UNL1 0
124 C18 16.9438 1.52219 8.97157 C.3 3 UNL1 0
125 H1 17.1668 1.47519 5.65757 H 3 UNL1 0
126 H2 19.2068 0.64119 7.79857 H 3 UNL1 0
127 H3 19.1178 0.0411896 6.13157 H 3 UNL1 0
128 H4 21.1628 0.59919 5.91357 H 3 UNL1 0
129 H5 21.2008 1.32419 7.53257 H 3 UNL1 0
130 H6 22.3058 2.49819 4.93457 H 3 UNL1 0
131 H7 23.0628 2.59419 7.95957 H 3 UNL1 0
132 H8 24.0568 3.31019 6.50857 H 3 UNL1 0
133 H9 17.2748 -0.72281 7.62257 H 3 UNL1 0
134 H10 15.9608 -0.40281 6.47857 H 3 UNL1 0
135 H11 15.5588 -0.17081 9.15257 H 3 UNL1 0
136 H12 14.2908 1.88519 9.05757 H 3 UNL1 0
137 H13 15.4998 3.67919 8.21657 H 3 UNL1 0
138 H14 15.0638 4.13019 5.96357 H 3 UNL1 0
139 H15 15.4648 2.50319 5.39657 H 3 UNL1 0
140 H16 13.1278 3.28319 7.04557 H 3 UNL1 0
141 H17 12.9408 3.53519 4.62357 H 3 UNL1 0
142 H18 13.5378 1.89919 4.30457 H 3 UNL1 0
143 H19 10.7658 3.91619 5.43457 H 3 UNL1 0
144 H20 11.1538 2.82819 6.88157 H 3 UNL1 0
145 H21 8.8598 2.25319 4.85357 H 3 UNL1 0
146 H22 7.82781 1.38819 7.02257 H 3 UNL1 0
147 H23 9.4328 1.81919 7.95657 H 3 UNL1 0
148 H24 12.8758 0.91519 7.57557 H 3 UNL1 0
149 H25 14.1078 0.44119 6.39357 H 3 UNL1 0
150 H26 17.7658 3.14519 7.74357 H 3 UNL1 0
151 H27 17.8418 0.97219 9.21657 H 3 UNL1 0
152 H28 16.5428 2.15219 9.78657 H 3 UNL1 0
@<TRIPOS>BOND
1 2 3 1
2 2 24 1
3 2 25 1
4 3 4 1
5 4 5 1
6 4 26 1
7 4 27 1
8 5 6 1
9 5 28 1
10 6 7 1
11 6 29 1
12 6 30 1
13 8 9 1
14 8 31 1
15 8 32 1
16 9 10 1
17 9 22 1
18 9 33 1
19 10 11 1
20 10 20 1
21 10 34 1
22 11 12 1
23 11 21 1
24 11 35 1
25 12 13 1
26 12 36 1
27 12 37 1
28 13 14 1
29 13 20 1
30 13 38 1
31 14 15 1
32 14 39 1
33 14 40 1
34 15 16 1
35 16 17 1
36 16 41 1
37 16 42 1
38 17 18 1
39 17 19 1
40 17 43 1
41 18 19 1
42 19 44 1
43 19 45 1
44 20 46 1
45 20 47 1
46 21 22 1
47 21 48 1
48 22 49 1
49 22 50 1
50 1 23 1
51 1 2 1
52 1 21 1
53 1 8 1
54 5 51 1
55 53 54 1
56 53 75 1
57 53 76 1
58 54 55 1
59 55 56 1
60 55 77 1
61 55 78 1
62 56 57 1
63 56 79 1
64 57 58 1
65 57 80 1
66 57 81 1
67 59 60 1
68 59 82 1
69 59 83 1
70 60 61 1
71 60 73 1
72 60 84 1
73 61 62 1
74 61 71 1
75 61 85 1
76 62 63 1
77 62 72 1
78 62 86 1
79 63 64 1
80 63 87 1
81 63 88 1
82 64 65 1
83 64 71 1
84 64 89 1
85 65 66 1
86 65 90 1
87 65 91 1
88 66 67 1
89 67 68 1
90 67 92 1
91 67 93 1
92 68 69 1
93 68 70 1
94 68 94 1
95 69 70 1
96 70 95 1
97 70 96 1
98 71 97 1
99 71 98 1
100 72 73 1
101 72 99 1
102 73 100 1
103 73 101 1
104 52 74 1
105 52 53 1
106 52 72 1
107 52 59 1
108 58 102 1
109 56 7 1
110 104 105 1
111 104 126 1
112 104 127 1
113 105 106 1
114 106 107 1
115 106 128 1
116 106 129 1
117 107 108 1
118 107 109 1
119 107 130 1
120 108 109 1
121 108 131 1
122 108 132 1
123 110 111 1
124 110 133 1
125 110 134 1
126 111 112 1
127 111 124 1
128 111 135 1
129 112 113 1
130 112 122 1
131 112 136 1
132 113 114 1
133 113 123 1
134 113 137 1
135 114 115 1
136 114 138 1
137 114 139 1
138 115 116 1
139 115 122 1
140 115 140 1
141 116 117 1
142 116 141 1
143 116 142 1
144 117 118 1
145 118 119 1
146 118 143 1
147 118 144 1
148 119 120 1
149 119 121 1
150 119 145 1
151 120 121 1
152 121 146 1
153 121 147 1
154 122 148 1
155 122 149 1
156 123 124 1
157 123 150 1
158 124 151 1
159 124 152 1
160 103 125 1
161 103 104 1
162 103 123 1
163 103 110 1
@<TRIPOS>SUBSTRUCTURE
1 UNL1 1 **** **** C18H
2 UNL1 52 **** **** C180
3 UNL1 103 **** **** C181
