# Mol2 file generated by Materials Studio
@<TRIPOS>MOLECULE
"mol_ED-523T"
72 73 2 0 0 
SMALL
USER_CHARGES


@<TRIPOS>ATOM
1 C1 0.103502 -0.912334 1.09802 C.3 1 UNL1 0
2 C2 0.310533 -0.512384 -0.374938 C.3 1 UNL1 0
3 C3 1.82845 -0.527427 -0.64394 C.3 1 UNL1 0
4 O1 2.30473 -1.91592 -0.284952 O.3 1 UNL1 0
5 C4 3.6657 -2.41147 -0.731151 C.3 1 UNL1 0
6 C5 4.93044 -1.71776 -0.179788 C.3 1 UNL1 0
7 O2 4.15662 0.673719 -0.483129 O.3 1 UNL1 0
8 C6 5.21539 -0.345427 -0.822138 C.3 1 UNL1 0
9 C7 -0.351782 -1.56028 -1.28746 C.3 1 UNL1 0
10 C8 -0.291287 0.872628 -0.69559 C.3 1 UNL1 0
11 O3 -1.80434 0.886057 -0.621014 O.3 1 UNL1 0
12 C9 -2.36335 0.717761 0.772249 C.3 1 UNL1 0
13 C10 -3.90078 0.772693 0.70653 C.3 1 UNL1 0
14 O4 -4.53293 0.145968 -0.50323 O.3 1 UNL1 0
15 C11 -4.52761 1.66102 -0.380595 C.3 1 UNL1 0
16 H1 -1.00455 -0.999975 1.3372 H 1 UNL1 0
17 H2 0.600922 -1.9222 1.2777 H 1 UNL1 0
18 H3 0.583096 -0.131826 1.77628 H 1 UNL1 0
19 H4 2.34119 0.247233 0.0148918 H 1 UNL1 0
20 H5 2.02559 -0.308301 -1.74488 H 1 UNL1 0
21 H6 3.72125 -2.41921 -1.8697 H 1 UNL1 0
22 H7 3.71749 -3.49108 -0.369133 H 1 UNL1 0
23 H9 5.28266 -0.46675 -1.95359 H 1 UNL1 0
24 H10 6.21526 0.0359675 -0.428878 H 1 UNL1 0
25 H11 0.0939128 -2.58682 -1.06987 H 1 UNL1 0
26 H12 -0.163937 -1.2861 -2.37779 H 1 UNL1 0
27 H13 -1.47395 -1.5792 -1.08663 H 1 UNL1 0
28 H14 -0.00451473 1.13475 -1.76732 H 1 UNL1 0
29 H15 0.14432 1.65741 0.00791405 H 1 UNL1 0
30 H16 -1.97475 1.55147 1.44492 H 1 UNL1 0
31 H17 -2.06768 -0.291715 1.20344 H 1 UNL1 0
32 H18 -4.51607 0.670524 1.66061 H 1 UNL1 0
33 H19 -3.91773 2.01884 -1.27493 H 1 UNL1 0
34 H20 -5.62762 1.95554 -0.326164 H 1 UNL1 0
35 H 4.86263 -1.61818 0.953965 H 1 UNL1 0
36 H 4.43085 1.65354 -0.927512 H 1 UNL1 0
37 C1 10.8414 -5.59007 -1.3549 C.3 2 UNL1 0
38 C2 11.1699 -4.80722 -2.6408 C.3 2 UNL1 0
39 C3 12.7032 -4.71238 -2.75684 C.3 2 UNL1 0
40 O1 13.2778 -6.10877 -2.80478 O.3 2 UNL1 0
41 C4 14.7643 -6.04425 -3.0644 C.3 2 UNL1 0
42 C5 15.4579 -5.19003 -1.98768 C.3 2 UNL1 0
43 O2 15.5341 -3.7141 -2.2522 O.3 2 UNL1 0
44 C6 16.7947 -4.55055 -2.39992 C.3 2 UNL1 0
45 C7 10.632 -5.56318 -3.86846 C.3 2 UNL1 0
46 C8 10.569 -3.3858 -2.60773 C.3 2 UNL1 0
47 O3 9.06505 -3.37599 -2.78892 O.3 2 UNL1 0
48 C9 8.31659 -4.29499 -1.85422 C.3 2 UNL1 0
49 C10 6.81819 -4.30804 -2.21844 C.3 2 UNL1 0
50 O4 6.07143 -2.6569 -0.502601 O.3 2 UNL1 0
51 C11 6.09289 -2.96741 -1.9806 C.3 2 UNL1 0
52 H1 9.71703 -5.71054 -1.2266 H 2 UNL1 0
53 H2 11.3236 -6.62151 -1.41522 H 2 UNL1 0
54 H3 11.2642 -5.02955 -0.457169 H 2 UNL1 0
55 H4 13.1325 -4.15437 -1.85948 H 2 UNL1 0
56 H5 12.9743 -4.15953 -3.7163 H 2 UNL1 0
57 H6 14.948 -5.57414 -4.08634 H 2 UNL1 0
58 H7 15.1973 -7.09883 -3.05091 H 2 UNL1 0
59 H8 15.3977 -5.48631 -0.888266 H 2 UNL1 0
60 H9 17.0832 -4.44776 -3.49802 H 2 UNL1 0
61 H10 17.512 -4.13911 -1.61479 H 2 UNL1 0
62 H11 11.0928 -6.60527 -3.90424 H 2 UNL1 0
63 H12 10.9055 -4.99269 -4.8164 H 2 UNL1 0
64 H13 9.49773 -5.64882 -3.78748 H 2 UNL1 0
65 H14 11.0079 -2.79472 -3.47823 H 2 UNL1 0
66 H15 10.8607 -2.87758 -1.63027 H 2 UNL1 0
67 H16 8.46512 -3.98043 -0.768366 H 2 UNL1 0
68 H17 8.71471 -5.35054 -2.00947 H 2 UNL1 0
69 H18 6.29576 -5.10028 -1.58684 H 2 UNL1 0
70 H19 6.58456 -2.12118 -2.56515 H 2 UNL1 0
71 H20 5.01489 -3.09 -2.33051 H 2 UNL1 0
72 H 6.72494 -4.59297 -3.31806 H 2 UNL1 0
@<TRIPOS>BOND
1 2 3 1
2 2 9 1
3 2 10 1
4 3 4 1
5 3 19 1
6 3 20 1
7 4 5 1
8 5 6 1
9 5 21 1
10 5 22 1
11 6 8 1
12 7 8 1
13 8 23 1
14 8 24 1
15 9 25 1
16 9 26 1
17 9 27 1
18 10 11 1
19 10 28 1
20 10 29 1
21 11 12 1
22 12 13 1
23 12 30 1
24 12 31 1
25 13 14 1
26 13 15 1
27 13 32 1
28 14 15 1
29 15 33 1
30 15 34 1
31 1 17 1
32 1 16 1
33 1 2 1
34 1 18 1
35 6 35 1
36 7 36 1
37 38 39 1
38 38 45 1
39 38 46 1
40 39 40 1
41 39 55 1
42 39 56 1
43 40 41 1
44 41 42 1
45 41 57 1
46 41 58 1
47 42 43 1
48 42 44 1
49 42 59 1
50 43 44 1
51 44 60 1
52 44 61 1
53 45 62 1
54 45 63 1
55 45 64 1
56 46 47 1
57 46 65 1
58 46 66 1
59 47 48 1
60 48 49 1
61 48 67 1
62 48 68 1
63 49 51 1
64 49 69 1
65 50 51 1
66 51 70 1
67 51 71 1
68 37 53 1
69 37 52 1
70 37 38 1
71 37 54 1
72 49 72 1
73 6 50 1
@<TRIPOS>SUBSTRUCTURE
1 UNL1 1 **** **** C11H
2 UNL1 37 **** **** C110
