# Mol2 file generated by Materials Studio
@<TRIPOS>MOLECULE
"mol_ED-523T"
107 109 3 0 0 
SMALL
USER_CHARGES


@<TRIPOS>ATOM
1 C1 -0.897612 -1.58605 0.536606 C.3 1 UNL1 0
2 C2 -0.229422 -0.686456 -0.518663 C.3 1 UNL1 0
3 C3 1.29878 -0.851305 -0.44896 C.3 1 UNL1 0
4 O1 1.78316 -2.22794 -0.841552 O.3 1 UNL1 0
5 C4 3.27339 -2.1221 -0.627119 C.3 1 UNL1 0
6 C5 3.58609 -2.31743 0.867802 C.3 1 UNL1 0
7 O2 4.98214 -0.278912 0.835886 O.3 1 UNL1 0
8 C6 4.98721 -1.75324 1.16019 C.3 1 UNL1 0
9 C7 -0.734349 -1.08019 -1.91839 C.3 1 UNL1 0
10 C8 -0.543272 0.804005 -0.279225 C.3 1 UNL1 0
11 O3 -2.02852 1.06457 -0.346112 O.3 1 UNL1 0
12 C9 -2.69098 0.692296 0.958631 C.3 1 UNL1 0
13 C10 -4.21487 0.83832 0.798041 C.3 1 UNL1 0
14 O4 -4.74666 0.300532 -0.50119 O.3 1 UNL1 0
15 C11 -4.73029 1.80339 -0.282567 C.3 1 UNL1 0
16 H1 -1.97469 -1.79744 0.228687 H 1 UNL1 0
17 H2 -0.325155 -2.56872 0.615662 H 1 UNL1 0
18 H3 -0.887858 -1.05824 1.54701 H 1 UNL1 0
19 H4 1.6423 -0.632323 0.615764 H 1 UNL1 0
20 H5 1.79405 -0.104927 -1.1541 H 1 UNL1 0
21 H6 3.63382 -1.09314 -0.960184 H 1 UNL1 0
22 H7 3.80311 -2.92675 -1.23665 H 1 UNL1 0
23 H9 5.75836 -2.28607 0.511336 H 1 UNL1 0
24 H10 5.23796 -1.9103 2.26112 H 1 UNL1 0
25 H11 -0.518848 -2.18423 -2.10344 H 1 UNL1 0
26 H12 -0.200597 -0.45168 -2.70559 H 1 UNL1 0
27 H13 -1.85757 -0.896254 -1.98282 H 1 UNL1 0
28 H14 -0.0167741 1.43014 -1.07317 H 1 UNL1 0
29 H15 -0.165497 1.11106 0.751602 H 1 UNL1 0
30 H16 -2.32527 1.38717 1.78507 H 1 UNL1 0
31 H17 -2.43113 -0.385824 1.2227 H 1 UNL1 0
32 H18 -4.85817 0.697889 1.72865 H 1 UNL1 0
33 H19 -3.93547 2.38549 -0.856186 H 1 UNL1 0
34 H20 -5.59622 2.41529 0.136171 H 1 UNL1 0
35 H 2.80649 -1.78329 1.50539 H 1 UNL1 0
36 H 6.0274 0.0870549 0.761007 H 1 UNL1 0
37 C1 9.58978 -6.99433 1.80486 C.3 2 UNL1 0
38 C2 9.82934 -6.28662 0.458068 C.3 2 UNL1 0
39 C3 11.3277 -5.95659 0.314779 C.3 2 UNL1 0
40 O1 12.1198 -7.24047 0.362519 O.3 2 UNL1 0
41 C4 13.5768 -6.96894 0.070487 C.3 2 UNL1 0
42 C5 14.1583 -5.97385 1.09201 C.3 2 UNL1 0
43 O2 14.1348 -4.51459 0.738116 O.3 2 UNL1 0
44 C6 15.4492 -5.27093 0.637107 C.3 2 UNL1 0
45 C7 9.41094 -7.21572 -0.695885 C.3 2 UNL1 0
46 C8 9.02962 -4.97245 0.364659 C.3 2 UNL1 0
47 O3 7.52894 -5.1684 0.33366 O.3 2 UNL1 0
48 C9 6.91591 -5.74137 1.59127 C.3 2 UNL1 0
49 C10 5.38482 -5.64452 1.44943 C.3 2 UNL1 0
50 O4 3.60838 -3.79211 1.19891 O.3 2 UNL1 0
51 C11 5.07697 -4.14789 1.25432 C.3 2 UNL1 0
52 H1 8.64464 -6.57984 2.28912 H 2 UNL1 0
53 H2 9.46709 -8.11402 1.62923 H 2 UNL1 0
54 H3 10.4803 -6.81298 2.49312 H 2 UNL1 0
55 H4 11.652 -5.27616 1.17002 H 2 UNL1 0
56 H5 11.5074 -5.43053 -0.680487 H 2 UNL1 0
57 H6 13.6756 -6.53274 -0.978116 H 2 UNL1 0
58 H7 14.1644 -7.94411 0.129389 H 2 UNL1 0
59 H8 14.0717 -6.2462 2.19561 H 2 UNL1 0
60 H9 15.8088 -5.51429 -0.416943 H 2 UNL1 0
61 H10 16.2314 -5.34104 1.46338 H 2 UNL1 0
62 H11 9.79834 -8.26895 -0.495293 H 2 UNL1 0
63 H12 9.85088 -6.82885 -1.67383 H 2 UNL1 0
64 H13 8.27376 -7.23739 -0.773059 H 2 UNL1 0
65 H14 9.3457 -4.41834 -0.580145 H 2 UNL1 0
66 H15 9.26583 -4.31883 1.26831 H 2 UNL1 0
67 H16 7.25834 -5.13885 2.49643 H 2 UNL1 0
68 H17 7.23598 -6.82922 1.70848 H 2 UNL1 0
69 H19 5.56928 -3.80117 0.28632 H 2 UNL1 0
70 H20 5.5216 -3.55261 2.11893 H 2 UNL1 0
71 H 5.04398 -6.23147 0.533505 H 2 UNL1 0
72 C1 5.3752 -10.9101 4.88556 C.3 3 UNL1 0
73 C2 5.4896 -10.3591 3.45275 C.3 3 UNL1 0
74 C3 6.98084 -10.1654 3.12482 C.3 3 UNL1 0
75 O1 7.69526 -11.4851 3.28738 O.3 3 UNL1 0
76 C4 9.1766 -11.2506 3.1184 C.3 3 UNL1 0
77 C5 9.65928 -10.252 4.18706 C.3 3 UNL1 0
78 O2 9.45619 -8.79828 3.86926 O.3 3 UNL1 0
79 C6 10.8629 -9.37061 3.8131 C.3 3 UNL1 0
80 C7 4.8445 -11.3552 2.47185 C.3 3 UNL1 0
81 C8 4.76293 -9.0022 3.4066 C.3 3 UNL1 0
82 O3 3.35942 -9.1883 3.93071 O.3 3 UNL1 0
83 C9 2.84161 -7.85336 4.41199 C.3 3 UNL1 0
84 C10 2.32934 -6.94242 3.28017 C.3 3 UNL1 0
85 O4 4.67142 -6.15436 2.67798 O.3 3 UNL1 0
86 C11 3.35585 -6.68303 2.16309 C.3 3 UNL1 0
87 H1 4.66533 -10.2537 5.48956 H 3 UNL1 0
88 H2 4.97144 -11.9756 4.85183 H 3 UNL1 0
89 H3 6.40413 -10.9089 5.3764 H 3 UNL1 0
90 H4 7.43138 -9.39749 3.83681 H 3 UNL1 0
91 H5 7.08929 -9.79936 2.05064 H 3 UNL1 0
92 H6 9.37841 -10.8243 2.08053 H 3 UNL1 0
93 H7 9.73381 -12.2377 3.23925 H 3 UNL1 0
94 H8 9.56135 -10.5668 5.27834 H 3 UNL1 0
95 H9 11.2986 -9.53104 2.77192 H 3 UNL1 0
96 H10 11.6099 -9.36227 4.67421 H 3 UNL1 0
97 H11 5.17596 -12.4143 2.73288 H 3 UNL1 0
98 H12 5.17051 -11.1063 1.4082 H 3 UNL1 0
99 H13 3.70937 -11.2826 2.5482 H 3 UNL1 0
100 H14 4.72298 -8.62599 2.3312 H 3 UNL1 0
101 H15 5.32221 -8.24938 4.05473 H 3 UNL1 0
102 H16 3.67919 -7.31365 4.96587 H 3 UNL1 0
103 H17 1.97384 -8.01968 5.13234 H 3 UNL1 0
104 H18 2.01918 -5.94178 3.72975 H 3 UNL1 0
105 H19 2.91813 -5.92909 1.42853 H 3 UNL1 0
106 H20 3.56849 -7.65632 1.60892 H 3 UNL1 0
107 H 1.41741 -7.42054 2.79089 H 3 UNL1 0
@<TRIPOS>BOND
1 2 3 1
2 2 9 1
3 2 10 1
4 3 4 1
5 3 19 1
6 3 20 1
7 4 5 1
8 5 6 1
9 5 21 1
10 5 22 1
11 6 8 1
12 7 8 1
13 8 23 1
14 8 24 1
15 9 25 1
16 9 26 1
17 9 27 1
18 10 11 1
19 10 28 1
20 10 29 1
21 11 12 1
22 12 13 1
23 12 30 1
24 12 31 1
25 13 14 1
26 13 15 1
27 13 32 1
28 14 15 1
29 15 33 1
30 15 34 1
31 1 17 1
32 1 16 1
33 1 2 1
34 1 18 1
35 6 35 1
36 7 36 1
37 38 39 1
38 38 45 1
39 38 46 1
40 39 40 1
41 39 55 1
42 39 56 1
43 40 41 1
44 41 42 1
45 41 57 1
46 41 58 1
47 42 43 1
48 42 44 1
49 42 59 1
50 43 44 1
51 44 60 1
52 44 61 1
53 45 62 1
54 45 63 1
55 45 64 1
56 46 47 1
57 46 65 1
58 46 66 1
59 47 48 1
60 48 49 1
61 48 67 1
62 48 68 1
63 49 51 1
64 50 51 1
65 51 69 1
66 51 70 1
67 37 53 1
68 37 52 1
69 37 38 1
70 37 54 1
71 49 71 1
72 50 6 1
73 73 74 1
74 73 80 1
75 73 81 1
76 74 75 1
77 74 90 1
78 74 91 1
79 75 76 1
80 76 77 1
81 76 92 1
82 76 93 1
83 77 78 1
84 77 79 1
85 77 94 1
86 78 79 1
87 79 95 1
88 79 96 1
89 80 97 1
90 80 98 1
91 80 99 1
92 81 82 1
93 81 100 1
94 81 101 1
95 82 83 1
96 83 84 1
97 83 102 1
98 83 103 1
99 84 86 1
100 84 104 1
101 85 86 1
102 86 105 1
103 86 106 1
104 72 88 1
105 72 87 1
106 72 73 1
107 72 89 1
108 84 107 1
109 49 85 1
@<TRIPOS>SUBSTRUCTURE
1 UNL1 1 **** **** C11H
2 UNL1 37 **** **** C110
3 UNL1 72 **** **** C111
