# Mol2 file generated by Materials Studio
@<TRIPOS>MOLECULE
"mol_ED-523T"
107 109 3 0 0 
SMALL
USER_CHARGES


@<TRIPOS>ATOM
1 C1 -0.503683 -0.987459 0.830157 C.3 1 UNL1 0
2 C2 -0.105563 -0.237253 -0.454096 C.3 1 UNL1 0
3 C3 1.42912 -0.313022 -0.569117 C.3 1 UNL1 0
4 O1 1.71872 -1.79094 -0.676885 O.3 1 UNL1 0
5 C4 3.12858 -2.32646 -0.563332 C.3 1 UNL1 0
6 C5 3.72933 -1.95846 0.804226 C.3 1 UNL1 0
7 O2 3.86523 0.502736 0.235278 O.3 1 UNL1 0
8 C6 4.62113 -0.702399 0.737345 C.3 1 UNL1 0
9 C7 -0.725348 -0.962313 -1.66134 C.3 1 UNL1 0
10 C8 -0.621517 1.21576 -0.443615 C.3 1 UNL1 0
11 O3 -2.13403 1.23892 -0.444291 O.3 1 UNL1 0
12 C9 -2.73603 0.951949 0.910751 C.3 1 UNL1 0
13 C10 -4.25992 0.792166 0.7449 C.3 1 UNL1 0
14 O4 -4.7123 0.0630793 -0.49015 O.3 1 UNL1 0
15 C11 -4.94021 1.56263 -0.399607 C.3 1 UNL1 0
16 H1 -1.60276 -0.790537 1.06005 H 1 UNL1 0
17 H2 -0.340789 -2.10609 0.682774 H 1 UNL1 0
18 H3 0.137725 -0.621208 1.69852 H 1 UNL1 0
19 H4 1.9182 0.119335 0.365474 H 1 UNL1 0
20 H5 1.76948 0.258617 -1.49485 H 1 UNL1 0
21 H6 3.77092 -1.87722 -1.3911 H 1 UNL1 0
22 H7 3.11382 -3.4613 -0.670702 H 1 UNL1 0
23 H9 5.49986 -0.906971 0.0405005 H 1 UNL1 0
24 H10 5.01986 -0.46359 1.7783 H 1 UNL1 0
25 H11 -0.474225 -2.07301 -1.60748 H 1 UNL1 0
26 H12 -0.303809 -0.523723 -2.62546 H 1 UNL1 0
27 H13 -1.85723 -0.827435 -1.64554 H 1 UNL1 0
28 H14 -0.235737 1.75948 -1.36835 H 1 UNL1 0
29 H15 -0.242771 1.74676 0.491366 H 1 UNL1 0
30 H16 -2.51653 1.81817 1.61862 H 1 UNL1 0
31 H17 -2.28748 -0.00852321 1.33015 H 1 UNL1 0
32 H18 -4.86986 0.630253 1.69429 H 1 UNL1 0
33 H19 -4.25881 2.21359 -1.04112 H 1 UNL1 0
34 H20 -5.88959 2.06003 -0.0111944 H 1 UNL1 0
35 H 2.87887 -1.76575 1.53852 H 1 UNL1 0
36 H 4.25488 1.41658 0.73041 H 1 UNL1 0
37 C1 10.3296 -6.44897 1.51695 C.3 2 UNL1 0
38 C2 10.6226 -6.02244 0.0658871 C.3 2 UNL1 0
39 C3 12.1472 -5.86969 -0.0877133 C.3 2 UNL1 0
40 O1 12.8036 -7.1927 0.224253 O.3 2 UNL1 0
41 C4 14.2968 -7.04548 0.062275 C.3 2 UNL1 0
42 C5 14.8177 -5.99674 1.06205 C.3 2 UNL1 0
43 O2 14.6828 -4.56072 0.642953 O.3 2 UNL1 0
44 C6 16.0623 -5.1992 0.638769 C.3 2 UNL1 0
45 C7 10.1224 -7.11806 -0.89214 C.3 2 UNL1 0
46 C8 9.95446 -4.68274 -0.310202 C.3 2 UNL1 0
47 O3 8.44328 -4.69872 -0.239957 O.3 2 UNL1 0
48 C9 8.00503 -4.73701 1.20243 C.3 2 UNL1 0
49 C10 6.47957 -4.5995 1.3551 C.3 2 UNL1 0
50 O4 4.54162 -3.1317 1.29863 O.3 2 UNL1 0
51 C11 5.94949 -3.27476 0.770493 C.3 2 UNL1 0
52 H1 9.45841 -5.83695 1.92438 H 2 UNL1 0
53 H2 10.0599 -7.55635 1.54042 H 2 UNL1 0
54 H3 11.2538 -6.26923 2.15982 H 2 UNL1 0
55 H4 12.5263 -5.07503 0.636427 H 2 UNL1 0
56 H5 12.3922 -5.56002 -1.15713 H 2 UNL1 0
57 H6 14.5326 -6.70768 -1.00069 H 2 UNL1 0
58 H7 14.8015 -8.04763 0.263687 H 2 UNL1 0
59 H8 14.6997 -6.22982 2.17172 H 2 UNL1 0
60 H9 16.4959 -5.45112 -0.385001 H 2 UNL1 0
61 H10 16.8041 -5.1651 1.50373 H 2 UNL1 0
62 H11 10.5261 -8.12988 -0.556258 H 2 UNL1 0
63 H12 10.4878 -6.89484 -1.94867 H 2 UNL1 0
64 H13 8.98265 -7.14105 -0.88115 H 2 UNL1 0
65 H14 10.267 -4.40476 -1.3707 H 2 UNL1 0
66 H15 10.3124 -3.86675 0.400861 H 2 UNL1 0
67 H16 8.51231 -3.88625 1.76678 H 2 UNL1 0
68 H17 8.31771 -5.72934 1.66837 H 2 UNL1 0
69 H18 6.21151 -4.65004 2.46198 H 2 UNL1 0
70 H19 5.93739 -3.32613 -0.368285 H 2 UNL1 0
71 H20 6.61235 -2.41438 1.11683 H 2 UNL1 0
72 H 5.96417 -5.45732 0.809098 H 2 UNL1 0
73 C1 5.16587 -10.8357 5.03335 C.3 3 UNL1 0
74 C2 5.30387 -10.2367 3.66335 C.3 3 UNL1 0
75 C3 6.80887 -9.99271 3.43635 C.3 3 UNL1 0
76 O1 7.41087 -11.2297 3.53435 O.3 3 UNL1 0
77 C4 8.76487 -11.2527 3.36135 C.3 3 UNL1 0
78 C5 9.56987 -10.4437 4.31835 C.3 3 UNL1 0
79 O2 9.40087 -9.07471 4.42635 O.3 3 UNL1 0
80 C6 10.4889 -9.41771 3.66635 C.3 3 UNL1 0
81 C7 4.83087 -11.2677 2.62035 C.3 3 UNL1 0
82 C8 4.52887 -8.98871 3.42135 C.3 3 UNL1 0
83 O3 3.17687 -9.02871 3.51535 O.3 3 UNL1 0
84 C9 2.57487 -9.39171 4.66735 C.3 3 UNL1 0
85 C10 1.05487 -9.26471 4.46735 C.3 3 UNL1 0
86 O4 0.654874 -10.1667 3.35535 O.3 3 UNL1 0
87 C11 0.563874 -8.75671 3.22235 C.3 3 UNL1 0
88 H1 4.60787 -11.8187 5.02235 H 3 UNL1 0
89 H2 6.19887 -11.1357 5.43235 H 3 UNL1 0
90 H3 4.79287 -10.1567 5.80535 H 3 UNL1 0
91 H4 6.97787 -9.49271 2.45335 H 3 UNL1 0
92 H5 7.08587 -9.30371 4.28835 H 3 UNL1 0
93 H6 9.03187 -11.0187 2.29335 H 3 UNL1 0
94 H7 9.08287 -12.3247 3.48335 H 3 UNL1 0
95 H8 10.0379 -10.9877 5.18535 H 3 UNL1 0
96 H9 10.3529 -9.21271 2.57335 H 3 UNL1 0
97 H10 11.5129 -9.32471 4.04535 H 3 UNL1 0
98 H11 4.48987 -10.7527 1.70435 H 3 UNL1 0
99 H12 5.63787 -11.9657 2.37535 H 3 UNL1 0
100 H13 3.99487 -11.8427 3.08635 H 3 UNL1 0
101 H14 4.75987 -8.57971 2.38035 H 3 UNL1 0
102 H15 4.98487 -8.21371 4.11635 H 3 UNL1 0
103 H16 2.69287 -10.5067 4.84835 H 3 UNL1 0
104 H17 2.80787 -8.83771 5.57435 H 3 UNL1 0
105 H18 0.424874 -9.43371 5.34035 H 3 UNL1 0
106 H19 1.25287 -8.28971 2.48835 H 3 UNL1 0
107 H20 -0.491126 -8.42371 3.15535 H 3 UNL1 0
@<TRIPOS>BOND
1 2 3 1
2 2 9 1
3 2 10 1
4 3 4 1
5 3 19 1
6 3 20 1
7 4 5 1
8 5 6 1
9 5 21 1
10 5 22 1
11 6 8 1
12 7 8 1
13 8 23 1
14 8 24 1
15 9 25 1
16 9 26 1
17 9 27 1
18 10 11 1
19 10 28 1
20 10 29 1
21 11 12 1
22 12 13 1
23 12 30 1
24 12 31 1
25 13 14 1
26 13 15 1
27 13 32 1
28 14 15 1
29 15 33 1
30 15 34 1
31 1 17 1
32 1 16 1
33 1 2 1
34 1 18 1
35 6 35 1
36 7 36 1
37 38 39 1
38 38 45 1
39 38 46 1
40 39 40 1
41 39 55 1
42 39 56 1
43 40 41 1
44 41 42 1
45 41 57 1
46 41 58 1
47 42 43 1
48 42 44 1
49 42 59 1
50 43 44 1
51 44 60 1
52 44 61 1
53 45 62 1
54 45 63 1
55 45 64 1
56 46 47 1
57 46 65 1
58 46 66 1
59 47 48 1
60 48 49 1
61 48 67 1
62 48 68 1
63 49 51 1
64 49 69 1
65 50 51 1
66 51 70 1
67 51 71 1
68 37 53 1
69 37 52 1
70 37 38 1
71 37 54 1
72 49 72 1
73 50 6 1
74 74 75 1
75 74 81 1
76 74 82 1
77 75 76 1
78 75 91 1
79 75 92 1
80 76 77 1
81 77 78 1
82 77 93 1
83 77 94 1
84 78 79 1
85 78 80 1
86 78 95 1
87 79 80 1
88 80 96 1
89 80 97 1
90 81 98 1
91 81 99 1
92 81 100 1
93 82 83 1
94 82 101 1
95 82 102 1
96 83 84 1
97 84 85 1
98 84 103 1
99 84 104 1
100 85 86 1
101 85 87 1
102 85 105 1
103 86 87 1
104 87 106 1
105 87 107 1
106 73 89 1
107 73 88 1
108 73 74 1
109 73 90 1
@<TRIPOS>SUBSTRUCTURE
1 UNL1 1 **** **** C11H
2 UNL1 37 **** **** C110
3 UNL1 73 **** **** C111
