# Mol2 file generated by Materials Studio
@<TRIPOS>MOLECULE
"mol_ED-523T"
72 73 2 0 0 
SMALL
USER_CHARGES


@<TRIPOS>ATOM
1 C1 -0.336546 -0.744926 1.18129 C.3 1 UNL1 0
2 C2 -0.068218 -0.172483 -0.223006 C.3 1 UNL1 0
3 C3 1.45548 -0.0093436 -0.372723 C.3 1 UNL1 0
4 O1 2.05974 -1.37822 -0.169451 O.3 1 UNL1 0
5 C4 3.51596 -1.59736 -0.524782 C.3 1 UNL1 0
6 C5 4.57559 -0.874176 0.33552 C.3 1 UNL1 0
7 O2 3.5257 1.45107 0.406481 O.3 1 UNL1 0
8 C6 4.74283 0.634114 0.055414 C.3 1 UNL1 0
9 C7 -0.567683 -1.16943 -1.2839 C.3 1 UNL1 0
10 C8 -0.766608 1.18302 -0.450322 C.3 1 UNL1 0
11 O3 -2.27354 1.05295 -0.477658 O.3 1 UNL1 0
12 C9 -2.89257 0.774225 0.871273 C.3 1 UNL1 0
13 C10 -4.41699 0.63855 0.688693 C.3 1 UNL1 0
14 O4 -4.8547 -0.0737245 -0.558867 O.3 1 UNL1 0
15 C11 -5.04718 1.43076 -0.467247 C.3 1 UNL1 0
16 H1 -1.44583 -0.95792 1.31506 H 1 UNL1 0
17 H2 0.242135 -1.72031 1.29937 H 1 UNL1 0
18 H3 0.0139622 -2.78171e-05 1.97016 H 1 UNL1 0
19 H4 1.82036 0.713662 0.425953 H 1 UNL1 0
20 H5 1.70075 0.383655 -1.41446 H 1 UNL1 0
21 H6 3.69319 -1.35618 -1.62482 H 1 UNL1 0
22 H7 3.69384 -2.7132 -0.373724 H 1 UNL1 0
23 H8 5.5807 -1.34846 0.0813706 H 1 UNL1 0
24 H9 4.98799 0.781616 -1.04816 H 1 UNL1 0
25 H10 5.6153 1.01787 0.68113 H 1 UNL1 0
26 H11 -0.0413204 -2.17041 -1.14084 H 1 UNL1 0
27 H12 -0.338832 -0.763236 -2.32409 H 1 UNL1 0
28 H13 -1.69327 -1.30966 -1.1692 H 1 UNL1 0
29 H14 -0.438775 1.57173 -1.47066 H 1 UNL1 0
30 H15 -0.449541 1.93005 0.350363 H 1 UNL1 0
31 H16 -2.66477 1.63747 1.58158 H 1 UNL1 0
32 H17 -2.4913 -0.196993 1.30736 H 1 UNL1 0
33 H18 -5.0904 0.44826 1.58833 H 1 UNL1 0
34 H19 -4.39635 1.8672 -1.29554 H 1 UNL1 0
35 H20 -6.17483 1.59249 -0.521607 H 1 UNL1 0
36 H 4.35873 -1.05405 1.44029 H 1 UNL1 0
37 H 3.28217 1.31215 1.48072 H 1 UNL1 0
38 C1 11.4184 -5.73425 -1.34729 C.3 2 UNL1 0
39 C2 11.5564 -5.13525 -2.71729 C.3 2 UNL1 0
40 C3 13.0614 -4.89125 -2.94429 C.3 2 UNL1 0
41 O1 13.6634 -6.12825 -2.84629 O.3 2 UNL1 0
42 C4 15.0174 -6.15125 -3.01929 C.3 2 UNL1 0
43 C5 15.8224 -5.34225 -2.06229 C.3 2 UNL1 0
44 O2 15.6534 -3.97325 -1.95429 O.3 2 UNL1 0
45 C6 16.7414 -4.31625 -2.71429 C.3 2 UNL1 0
46 C7 11.0834 -6.16625 -3.76029 C.3 2 UNL1 0
47 C8 10.7814 -3.88725 -2.95929 C.3 2 UNL1 0
48 O3 9.42945 -3.92725 -2.86529 O.3 2 UNL1 0
49 C9 8.82745 -4.29025 -1.71329 C.3 2 UNL1 0
50 C10 7.30745 -4.16325 -1.91329 C.3 2 UNL1 0
51 O4 6.90745 -5.06525 -3.02529 O.3 2 UNL1 0
52 C11 6.81645 -3.65525 -3.15829 C.3 2 UNL1 0
53 H1 10.8604 -6.71725 -1.35829 H 2 UNL1 0
54 H2 12.4514 -6.03425 -0.948293 H 2 UNL1 0
55 H3 11.0454 -5.05525 -0.575293 H 2 UNL1 0
56 H4 13.2304 -4.39125 -3.92729 H 2 UNL1 0
57 H5 13.3384 -4.20225 -2.09229 H 2 UNL1 0
58 H6 15.2844 -5.91725 -4.08729 H 2 UNL1 0
59 H7 15.3354 -7.22325 -2.89729 H 2 UNL1 0
60 H8 16.2904 -5.88625 -1.19529 H 2 UNL1 0
61 H9 16.6054 -4.11125 -3.80729 H 2 UNL1 0
62 H10 17.7654 -4.22325 -2.33529 H 2 UNL1 0
63 H11 10.7424 -5.65125 -4.67629 H 2 UNL1 0
64 H12 11.8904 -6.86425 -4.00529 H 2 UNL1 0
65 H13 10.2474 -6.74125 -3.29429 H 2 UNL1 0
66 H14 11.0124 -3.47825 -4.00029 H 2 UNL1 0
67 H15 11.2374 -3.11225 -2.26429 H 2 UNL1 0
68 H16 8.94545 -5.40525 -1.53229 H 2 UNL1 0
69 H17 9.06045 -3.73625 -0.806293 H 2 UNL1 0
70 H18 6.67745 -4.33225 -1.04029 H 2 UNL1 0
71 H19 7.50545 -3.18825 -3.89229 H 2 UNL1 0
72 H20 5.76145 -3.32225 -3.22529 H 2 UNL1 0
@<TRIPOS>BOND
1 2 3 1
2 2 9 1
3 2 10 1
4 3 4 1
5 3 19 1
6 3 20 1
7 4 5 1
8 5 6 1
9 5 21 1
10 5 22 1
11 6 8 1
12 6 23 1
13 7 8 1
14 8 24 1
15 8 25 1
16 9 26 1
17 9 27 1
18 9 28 1
19 10 11 1
20 10 29 1
21 10 30 1
22 11 12 1
23 12 13 1
24 12 31 1
25 12 32 1
26 13 14 1
27 13 15 1
28 13 33 1
29 14 15 1
30 15 34 1
31 15 35 1
32 1 17 1
33 1 16 1
34 1 2 1
35 1 18 1
36 6 36 1
37 7 37 1
38 39 40 1
39 39 46 1
40 39 47 1
41 40 41 1
42 40 56 1
43 40 57 1
44 41 42 1
45 42 43 1
46 42 58 1
47 42 59 1
48 43 44 1
49 43 45 1
50 43 60 1
51 44 45 1
52 45 61 1
53 45 62 1
54 46 63 1
55 46 64 1
56 46 65 1
57 47 48 1
58 47 66 1
59 47 67 1
60 48 49 1
61 49 50 1
62 49 68 1
63 49 69 1
64 50 51 1
65 50 52 1
66 50 70 1
67 51 52 1
68 52 71 1
69 52 72 1
70 38 54 1
71 38 53 1
72 38 39 1
73 38 55 1
@<TRIPOS>SUBSTRUCTURE
1 UNL1 1 **** **** C11H
2 UNL1 38 **** **** C110
