# Mol2 file generated by Materials Studio
@<TRIPOS>MOLECULE
"mol_OXT-221"
113 115 3 0 0 
SMALL
USER_CHARGES


@<TRIPOS>ATOM
1 C1 -3.87572 0.553127 -1.04117 C.3 1 UNL1 0
2 C2 -3.35825 0.830544 0.381565 C.3 1 UNL1 0
3 C3 -2.3528 -0.268859 0.76599 C.3 1 UNL1 0
4 C4 -1.17679 -0.300369 -0.222993 C.3 1 UNL1 0
5 O1 -0.532592 1.06204 -0.206401 O.3 1 UNL1 0
6 C5 0.655032 1.18929 -1.13086 C.3 1 UNL1 0
7 C6 1.80772 0.248679 -0.732551 C.3 1 UNL1 0
8 C7 2.08754 0.438158 0.76718 C.3 1 UNL1 0
9 C8 2.40521 1.92523 0.999449 C.3 1 UNL1 0
10 C9 1.50316 -1.22912 -1.05265 C.3 1 UNL1 0
11 O2 2.68379 -2.08718 -0.668216 O.3 1 UNL1 0
12 C10 3.05542 0.701189 -1.5078 C.3 1 UNL1 0
13 C11 -2.82231 -1.70849 1.00089 C.3 1 UNL1 0
14 O3 -1.64935 -1.81635 1.95704 O.3 1 UNL1 0
15 C12 -1.77124 -0.320951 2.18294 C.3 1 UNL1 0
16 H1 -2.99841 0.54821 -1.76824 H 1 UNL1 0
17 H2 -4.61756 1.36567 -1.34231 H 1 UNL1 0
18 H3 -4.39264 -0.462504 -1.06228 H 1 UNL1 0
19 H4 -2.83867 1.84426 0.405629 H 1 UNL1 0
20 H5 -4.22935 0.82923 1.11788 H 1 UNL1 0
21 H6 -1.55274 -0.540741 -1.27159 H 1 UNL1 0
22 H7 -0.437157 -1.09183 0.125622 H 1 UNL1 0
23 H8 1.03623 2.25902 -1.02467 H 1 UNL1 0
24 H9 0.35475 1.00679 -2.21471 H 1 UNL1 0
25 H10 2.97821 -0.202535 1.07821 H 1 UNL1 0
26 H11 1.16738 0.140709 1.3708 H 1 UNL1 0
27 H12 3.31318 2.21917 0.375968 H 1 UNL1 0
28 H13 2.62698 2.10296 2.10293 H 1 UNL1 0
29 H14 1.50815 2.55458 0.682008 H 1 UNL1 0
30 H15 1.30589 -1.33963 -2.16989 H 1 UNL1 0
31 H16 0.59163 -1.58569 -0.473675 H 1 UNL1 0
32 H18 3.20725 1.81067 -1.31197 H 1 UNL1 0
33 H19 -2.83459 -2.37509 0.0767784 H 1 UNL1 0
34 H20 -3.79412 -1.72778 1.59744 H 1 UNL1 0
35 H21 -2.57974 -0.121599 2.96155 H 1 UNL1 0
36 H22 -0.817377 0.283186 2.33999 H 1 UNL1 0
37 H 2.88273 -1.97014 0.417495 H 1 UNL1 0
38 H 2.90519 0.524327 -2.6243 H 1 UNL1 0
39 C1 4.37364 2.25675 -3.66951 C.3 2 UNL1 0
40 C2 4.92157 2.68863 -2.29791 C.3 2 UNL1 0
41 C3 5.97862 1.65865 -1.86562 C.3 2 UNL1 0
42 C4 7.08342 1.7 -2.93495 C.3 2 UNL1 0
43 O1 7.67842 3.07933 -3.06735 O.3 2 UNL1 0
44 C5 8.31851 3.15872 -4.43321 C.3 2 UNL1 0
45 C6 9.21899 1.934 -4.67443 C.3 2 UNL1 0
46 C7 10.3653 1.87571 -3.65092 C.3 2 UNL1 0
47 C8 11.2075 3.15558 -3.79882 C.3 2 UNL1 0
48 C9 8.59568 0.53874 -4.79888 C.3 2 UNL1 0
49 O2 9.76051 0.222468 -5.71692 O.3 2 UNL1 0
50 C10 9.80624 1.6966 -6.07083 C.3 2 UNL1 0
51 C11 5.44801 0.210272 -1.89968 C.3 2 UNL1 0
52 O3 4.26109 -0.0549458 -1.00759 O.3 2 UNL1 0
53 C12 6.51575 2.04209 -0.471864 C.3 2 UNL1 0
54 H1 5.23094 2.21276 -4.42063 H 2 UNL1 0
55 H2 3.59013 3.00504 -4.02421 H 2 UNL1 0
56 H3 3.90077 1.22438 -3.5722 H 2 UNL1 0
57 H4 5.40738 3.71645 -2.37901 H 2 UNL1 0
58 H5 4.08097 2.73619 -1.53195 H 2 UNL1 0
59 H6 6.60768 1.42052 -3.93235 H 2 UNL1 0
60 H7 7.9073 0.949912 -2.69181 H 2 UNL1 0
61 H8 8.93365 4.11543 -4.5164 H 2 UNL1 0
62 H9 7.49834 3.16406 -5.22423 H 2 UNL1 0
63 H10 11.0158 0.961079 -3.85456 H 2 UNL1 0
64 H11 9.93488 1.81458 -2.59778 H 2 UNL1 0
65 H12 11.6224 3.21217 -4.85955 H 2 UNL1 0
66 H13 12.0682 3.13628 -3.0525 H 2 UNL1 0
67 H14 10.5485 4.06485 -3.60028 H 2 UNL1 0
68 H15 7.63338 0.579116 -5.40971 H 2 UNL1 0
69 H16 8.49478 -0.0364147 -3.8202 H 2 UNL1 0
70 H17 10.8218 2.17801 -6.26294 H 2 UNL1 0
71 H18 9.03307 1.91006 -6.88098 H 2 UNL1 0
72 H19 6.29743 -0.485423 -1.59115 H 2 UNL1 0
73 H20 5.14297 -0.0367778 -2.9696 H 2 UNL1 0
74 H21 6.97971 3.08148 -0.532203 H 2 UNL1 0
75 H 7.31638 1.293 -0.159357 H 2 UNL1 0
76 C1 -0.317609 4.32103 4.25272 C.3 3 UNL1 0
77 C2 0.670738 4.63504 5.39003 C.3 3 UNL1 0
78 C3 1.47203 3.36439 5.72109 C.3 3 UNL1 0
79 C4 2.26786 2.86746 4.49816 C.3 3 UNL1 0
80 O1 3.20279 3.96779 4.05413 O.3 3 UNL1 0
81 C5 4.03526 3.66614 2.82516 C.3 3 UNL1 0
82 C6 5.0343 2.51376 3.05548 C.3 3 UNL1 0
83 C7 5.81505 2.85673 4.33567 C.3 3 UNL1 0
84 C8 6.4952 4.2219 4.12688 C.3 3 UNL1 0
85 C9 4.33924 1.14664 3.20745 C.3 3 UNL1 0
86 O2 5.41569 2.06734 0.567721 O.3 3 UNL1 0
87 C10 6.04602 2.43244 1.8928 C.3 3 UNL1 0
88 C11 0.752671 2.17541 6.36903 C.3 3 UNL1 0
89 O3 2.08265 1.87562 7.03316 O.3 3 UNL1 0
90 C12 2.39567 3.35719 6.94499 C.3 3 UNL1 0
91 H1 0.261143 3.97618 3.33316 H 3 UNL1 0
92 H2 -0.915071 5.25846 3.99958 H 3 UNL1 0
93 H3 -1.02794 3.49476 4.58687 H 3 UNL1 0
94 H4 1.38513 5.45959 5.06011 H 3 UNL1 0
95 H5 0.0954537 4.97437 6.31414 H 3 UNL1 0
96 H6 1.54941 2.61145 3.65102 H 3 UNL1 0
97 H7 2.86046 1.94402 4.80035 H 3 UNL1 0
98 H8 4.64253 4.60408 2.60353 H 3 UNL1 0
99 H9 3.3675 3.44108 1.92924 H 3 UNL1 0
100 H10 6.60118 2.05606 4.53639 H 3 UNL1 0
101 H11 5.09448 2.91872 5.21715 H 3 UNL1 0
102 H12 7.20389 4.15662 3.23556 H 3 UNL1 0
103 H13 7.08123 4.50678 5.06231 H 3 UNL1 0
104 H14 5.69817 5.01013 3.9197 H 3 UNL1 0
105 H15 5.12965 0.343615 3.38366 H 3 UNL1 0
106 H16 3.76433 0.904385 2.25376 H 3 UNL1 0
107 H17 6.82458 1.63884 2.14598 H 3 UNL1 0
108 H18 6.5676 3.44101 1.79244 H 3 UNL1 0
109 H19 0.321014 1.40857 5.64413 H 3 UNL1 0
110 H20 0.0125951 2.52884 7.16085 H 3 UNL1 0
111 H21 1.91114 3.8931 7.82654 H 3 UNL1 0
112 H22 3.47209 3.67614 6.74471 H 3 UNL1 0
113 H 3.62187 1.15925 4.08966 H 3 UNL1 0
@<TRIPOS>BOND
1 2 3 1
2 2 19 1
3 2 20 1
4 3 4 1
5 3 13 1
6 3 15 1
7 4 5 1
8 4 21 1
9 4 22 1
10 5 6 1
11 6 7 1
12 6 23 1
13 6 24 1
14 7 8 1
15 7 10 1
16 7 12 1
17 8 9 1
18 8 25 1
19 8 26 1
20 9 27 1
21 9 28 1
22 9 29 1
23 10 11 1
24 10 30 1
25 10 31 1
26 12 32 1
27 13 14 1
28 13 33 1
29 13 34 1
30 14 15 1
31 15 35 1
32 15 36 1
33 1 18 1
34 1 16 1
35 1 17 1
36 1 2 1
37 11 37 1
38 12 38 1
39 40 41 1
40 40 57 1
41 40 58 1
42 41 42 1
43 41 51 1
44 41 53 1
45 42 43 1
46 42 59 1
47 42 60 1
48 43 44 1
49 44 45 1
50 44 61 1
51 44 62 1
52 45 46 1
53 45 48 1
54 45 50 1
55 46 47 1
56 46 63 1
57 46 64 1
58 47 65 1
59 47 66 1
60 47 67 1
61 48 49 1
62 48 68 1
63 48 69 1
64 49 50 1
65 50 70 1
66 50 71 1
67 51 52 1
68 51 72 1
69 51 73 1
70 53 74 1
71 39 56 1
72 39 54 1
73 39 55 1
74 39 40 1
75 53 75 1
76 52 12 1
77 77 78 1
78 77 94 1
79 77 95 1
80 78 79 1
81 78 88 1
82 78 90 1
83 79 80 1
84 79 96 1
85 79 97 1
86 80 81 1
87 81 82 1
88 81 98 1
89 81 99 1
90 82 83 1
91 82 85 1
92 82 87 1
93 83 84 1
94 83 100 1
95 83 101 1
96 84 102 1
97 84 103 1
98 84 104 1
99 85 105 1
100 85 106 1
101 86 87 1
102 87 107 1
103 87 108 1
104 88 89 1
105 88 109 1
106 88 110 1
107 89 90 1
108 90 111 1
109 90 112 1
110 76 93 1
111 76 91 1
112 76 92 1
113 76 77 1
114 85 113 1
115 53 86 1
@<TRIPOS>SUBSTRUCTURE
1 UNL1 1 **** **** C12H
2 UNL1 39 **** **** C120
3 UNL1 76 **** **** C121
