# Mol2 file generated by Materials Studio
@<TRIPOS>MOLECULE
mol_EX141
64 66 3 0 0 
SMALL
USER_CHARGES


@<TRIPOS>ATOM
1 C1 -0.0654133 -1.1603 -0.645233 C.ar 1 UNL1 0
2 O1 1.20846 -1.64659 -1.29323 O.3 1 UNL1 0
3 C2 2.3095 -0.678984 -0.931054 C.3 1 UNL1 0
4 C3 2.72964 -0.871036 0.537289 C.3 1 UNL1 0
5 C4 3.70845 0.250413 0.9342 C.3 1 UNL1 0
6 O2 4.89862 0.259274 0.00800988 O.3 1 UNL1 0
7 C5 -1.20207 -2.14817 -0.318484 C.ar 1 UNL1 0
8 C6 -2.51262 -1.63218 0.306624 C.ar 1 UNL1 0
9 C7 -2.6813 -0.132412 0.615975 C.ar 1 UNL1 0
10 C8 -1.53875 0.851224 0.303845 C.ar 1 UNL1 0
11 C9 -0.227652 0.335573 -0.317458 C.ar 1 UNL1 0
12 H1 1.91934 0.38374 -1.08399 H 1 UNL1 0
13 H2 3.2223 -0.849558 -1.5978 H 1 UNL1 0
14 H4 4.05315 0.0962201 2.00912 H 1 UNL1 0
15 H5 3.17214 1.2571 0.848892 H 1 UNL1 0
16 H6 -1.07588 -3.25838 -0.545972 H 1 UNL1 0
17 H7 -3.35792 -2.35925 0.538839 H 1 UNL1 0
18 H8 -3.65248 0.249203 1.07782 H 1 UNL1 0
19 H9 -1.66411 1.96109 0.532356 H 1 UNL1 0
20 H10 0.621361 1.06108 -0.543614 H 1 UNL1 0
21 H 1.81181 -0.803427 1.20944 H 1 UNL1 0
22 H 5.59005 1.08262 0.291275 H 1 UNL1 0
23 C1 1.6805 -5.25248 -0.122395 C.ar 2 UNL1 0
24 O1 2.94606 -4.72258 0.504453 O.3 2 UNL1 0
25 C2 4.09884 -4.831 -0.463651 C.3 2 UNL1 0
26 C3 5.17755 -3.80468 -0.0683889 C.3 2 UNL1 0
27 C4 4.58332 -2.389 -0.202978 C.3 2 UNL1 0
28 O2 3.37562 -2.22991 0.695397 O.3 2 UNL1 0
29 C5 0.988004 -6.50179 0.453074 C.ar 2 UNL1 0
30 C6 -0.346842 -6.98393 -0.145426 C.ar 2 UNL1 0
31 C7 -0.987537 -6.21853 -1.31897 C.ar 2 UNL1 0
32 C8 -0.285208 -4.97899 -1.90291 C.ar 2 UNL1 0
33 C9 1.05434 -4.50396 -1.31296 C.ar 2 UNL1 0
34 H1 3.73895 -4.58932 -1.51876 H 2 UNL1 0
35 H2 4.51959 -5.89024 -0.436509 H 2 UNL1 0
36 H4 4.26948 -2.21285 -1.28366 H 2 UNL1 0
37 H5 5.38377 -1.63346 0.0892116 H 2 UNL1 0
38 H6 1.45789 -7.06395 1.32719 H 2 UNL1 0
39 H7 -0.864288 -7.90526 0.282954 H 2 UNL1 0
40 H8 -1.97796 -6.57152 -1.75592 H 2 UNL1 0
41 H9 -0.758739 -4.41181 -2.77323 H 2 UNL1 0
42 H10 1.57955 -3.59407 -1.75138 H 2 UNL1 0
43 H 5.50364 -3.98486 1.00916 H 2 UNL1 0
44 C1 8.96804 -0.118656 -1.81754 C.ar 3 UNL1 0
45 O1 9.87887 -1.262 -2.19761 O.3 3 UNL1 0
46 C2 9.92923 -2.43575 -1.24344 C.3 3 UNL1 0
47 C3 8.73277 -3.40312 -1.36812 C.3 3 UNL1 0
48 C4 7.42021 -2.89455 -0.740918 C.3 3 UNL1 0
49 O2 6.3748 -3.96109 -0.977723 O.3 3 UNL1 0
50 C5 7.46597 -0.185551 -2.14241 C.ar 3 UNL1 0
51 C6 6.5624 1.03076 -1.86549 C.ar 3 UNL1 0
52 C7 7.15874 2.30761 -1.24449 C.ar 3 UNL1 0
53 C8 8.66085 2.37447 -0.916182 C.ar 3 UNL1 0
54 C9 9.56485 1.15994 -1.19802 C.ar 3 UNL1 0
55 H1 10.0466 -2.07986 -0.169884 H 3 UNL1 0
56 H2 10.8526 -3.03245 -1.53128 H 3 UNL1 0
57 H3 9.00051 -4.36885 -0.823815 H 3 UNL1 0
58 H4 7.57847 -2.75347 0.379095 H 3 UNL1 0
59 H5 7.08554 -1.91416 -1.20954 H 3 UNL1 0
60 H6 7.02216 -1.13466 -2.59331 H 3 UNL1 0
61 H7 5.45299 0.983846 -2.1137 H 3 UNL1 0
62 H8 6.48643 3.2052 -1.0301 H 3 UNL1 0
63 H9 9.10545 3.32371 -0.466509 H 3 UNL1 0
64 H10 10.6771 1.21185 -0.960752 H 3 UNL1 0
@<TRIPOS>BOND
1 2 3 1
2 3 4 1
3 3 12 1
4 3 13 1
5 4 5 1
6 5 6 1
7 5 14 1
8 5 15 1
9 7 8 am
10 7 16 1
11 8 9 am
12 8 17 1
13 9 10 am
14 9 18 1
15 10 11 am
16 10 19 1
17 11 20 1
18 1 7 am
19 1 2 1
20 1 11 am
21 4 21 1
22 6 22 1
23 24 25 1
24 25 26 1
25 25 34 1
26 25 35 1
27 26 27 1
28 27 28 1
29 27 36 1
30 27 37 1
31 29 30 am
32 29 38 1
33 30 31 am
34 30 39 1
35 31 32 am
36 31 40 1
37 32 33 am
38 32 41 1
39 33 42 1
40 23 29 am
41 23 24 1
42 23 33 am
43 26 43 1
44 4 28 1
45 45 46 1
46 46 47 1
47 46 55 1
48 46 56 1
49 47 48 1
50 47 57 1
51 48 49 1
52 48 58 1
53 48 59 1
54 50 51 am
55 50 60 1
56 51 52 am
57 51 61 1
58 52 53 am
59 52 62 1
60 53 54 am
61 53 63 1
62 54 64 1
63 44 50 am
64 44 45 1
65 44 54 am
66 49 26 1
@<TRIPOS>SUBSTRUCTURE
1 UNL1 1 **** **** C9H1
2 UNL1 23 **** **** C9H0
3 UNL1 44 **** **** C9H2
