# Mol2 file generated by Materials Studio
@<TRIPOS>MOLECULE
mol_CEL2021P
116 124 3 0 0 
SMALL
USER_CHARGES


@<TRIPOS>ATOM
1 O1 0.875895 0.420314 2.11773 O.co2 1 UNL1 0
2 C1 0.835621 0.273175 0.615757 C.2 1 UNL1 0
3 O2 -0.357713 0.786726 -0.151896 O.co2 1 UNL1 0
4 C2 -1.56646 0.572691 0.726135 C.3 1 UNL1 0
5 C3 -1.77248 -0.941508 0.905389 C.3 1 UNL1 0
6 C4 -2.92198 -1.29922 1.85042 C.3 1 UNL1 0
7 C5 -2.79984 -2.81456 2.12552 C.3 1 UNL1 0
8 C6 -2.28524 -3.57719 0.885715 C.3 1 UNL1 0
9 C7 -2.86734 -2.88789 -0.350271 C.3 1 UNL1 0
10 O3 -4.35234 -2.7215 -0.12607 O.3 1 UNL1 0
11 C8 -2.12129 -1.54165 -0.474169 C.3 1 UNL1 0
12 C9 1.93357 -0.532077 -0.101739 C.3 1 UNL1 0
13 C10 3.0084 0.338693 -0.765262 C.3 1 UNL1 0
14 C11 3.77286 -0.658401 -1.65981 C.3 1 UNL1 0
15 C12 3.82338 -2.04248 -0.979282 C.3 1 UNL1 0
16 C13 4.15915 -1.58175 0.458333 C.3 1 UNL1 0
17 O4 4.84594 -2.77167 -0.151648 O.3 1 UNL1 0
18 C14 2.72774 -1.31121 0.965739 C.3 1 UNL1 0
19 H1 -2.49269 1.02952 0.243596 H 1 UNL1 0
20 H2 -1.38168 1.05849 1.74081 H 1 UNL1 0
21 H3 -0.831381 -1.41403 1.34212 H 1 UNL1 0
22 H4 -3.88892 -1.04876 1.3017 H 1 UNL1 0
23 H5 -2.88255 -0.736873 2.84108 H 1 UNL1 0
24 H6 -3.8366 -3.1772 2.43041 H 1 UNL1 0
25 H7 -2.06425 -3.02647 2.97007 H 1 UNL1 0
26 H9 -2.6964 -3.48601 -1.30561 H 1 UNL1 0
27 H10 -1.13411 -1.66775 -1.0304 H 1 UNL1 0
28 H11 -2.79806 -0.843481 -1.06903 H 1 UNL1 0
29 H12 1.48751 -1.20957 -0.902814 H 1 UNL1 0
30 H13 3.66506 0.768079 0.0616323 H 1 UNL1 0
31 H14 2.58369 1.17453 -1.41397 H 1 UNL1 0
32 H15 4.8023 -0.250036 -1.93053 H 1 UNL1 0
33 H16 3.16832 -0.812 -2.6138 H 1 UNL1 0
34 H17 2.80851 -2.55825 -0.917688 H 1 UNL1 0
35 H18 4.79457 -0.64111 0.353927 H 1 UNL1 0
36 H19 2.17329 -2.25737 1.27719 H 1 UNL1 0
37 H20 2.85307 -0.634676 1.87465 H 1 UNL1 0
38 H -1.15242 -3.49858 0.783962 H 1 UNL1 0
39 H -4.53781 -2.16564 0.815461 H 1 UNL1 0
40 O1 2.29728 -5.34568 1.09447 O.co2 2 UNL1 0
41 C1 2.66998 -6.35944 0.0385724 C.2 2 UNL1 0
42 O2 1.65086 -6.80371 -0.987453 O.co2 2 UNL1 0
43 C2 0.695919 -5.66815 -1.26069 C.3 2 UNL1 0
44 C3 -0.591217 -5.62953 -0.405928 C.3 2 UNL1 0
45 C4 -1.61693 -6.74286 -0.718543 C.3 2 UNL1 0
46 C5 -1.62515 -7.90907 0.283586 C.3 2 UNL1 0
47 C6 -1.98499 -7.32698 1.66958 C.3 2 UNL1 0
48 C7 -1.68836 -5.81153 1.7716 C.3 2 UNL1 0
49 O3 -2.69308 -5.02807 0.961792 O.3 2 UNL1 0
50 C8 -0.336745 -5.51423 1.11322 C.3 2 UNL1 0
51 C9 4.08425 -6.96661 0.0275504 C.3 2 UNL1 0
52 C10 5.15293 -6.01932 -0.533846 C.3 2 UNL1 0
53 C11 6.35359 -6.95659 -0.773387 C.3 2 UNL1 0
54 C12 6.36509 -8.06437 0.300128 C.3 2 UNL1 0
55 C13 6.08079 -7.19785 1.55 C.3 2 UNL1 0
56 O4 7.12968 -8.27549 1.57622 O.3 2 UNL1 0
57 C14 4.53962 -7.19396 1.48265 C.3 2 UNL1 0
58 H1 0.370444 -5.73489 -2.35104 H 2 UNL1 0
59 H2 1.26961 -4.69359 -1.1153 H 2 UNL1 0
60 H3 -1.13143 -4.68288 -0.741572 H 2 UNL1 0
61 H4 -1.50502 -7.08832 -1.7992 H 2 UNL1 0
62 H5 -2.64918 -6.27429 -0.602918 H 2 UNL1 0
63 H7 -2.45532 -8.63113 -0.0132195 H 2 UNL1 0
64 H8 -1.42312 -7.92786 2.45723 H 2 UNL1 0
65 H9 -1.71637 -5.49167 2.86537 H 2 UNL1 0
66 H10 0.0281963 -4.45688 1.33359 H 2 UNL1 0
67 H11 0.412707 -6.26984 1.51433 H 2 UNL1 0
68 H12 4.10527 -7.92687 -0.586625 H 2 UNL1 0
69 H13 5.36639 -5.22919 0.259936 H 2 UNL1 0
70 H14 4.8593 -5.52917 -1.52037 H 2 UNL1 0
71 H15 7.32603 -6.36381 -0.824238 H 2 UNL1 0
72 H16 6.18784 -7.49457 -1.76461 H 2 UNL1 0
73 H17 5.49579 -8.7969 0.213881 H 2 UNL1 0
74 H18 6.54662 -6.17812 1.3428 H 2 UNL1 0
75 H19 4.06491 -8.13914 1.90837 H 2 UNL1 0
76 H20 4.20701 -6.29567 2.10064 H 2 UNL1 0
77 H -3.10372 -7.43966 1.8575 H 2 UNL1 0
78 O1 -2.23365 -9.94005 3.90311 O.co2 3 UNL1 0
79 C1 -1.44573 -10.1238 2.62973 C.2 3 UNL1 0
80 O2 -2.15153 -10.5055 1.34862 O.co2 3 UNL1 0
81 C2 -3.53257 -9.89388 1.27805 C.3 3 UNL1 0
82 C3 -4.47822 -10.5051 2.32939 C.3 3 UNL1 0
83 C4 -5.84943 -9.81312 2.21547 C.3 3 UNL1 0
84 C5 -6.93028 -10.867 2.5047 C.3 3 UNL1 0
85 C6 -6.53992 -11.6772 3.74636 C.3 3 UNL1 0
86 C7 -5.30745 -12.5545 3.46456 C.3 3 UNL1 0
87 O3 -6.69166 -13.1644 3.57687 O.3 3 UNL1 0
88 C8 -4.6683 -12.024 2.15959 C.3 3 UNL1 0
89 C9 0.0905963 -10.0195 2.66868 C.3 3 UNL1 0
90 C10 0.665436 -10.9199 1.5539 C.3 3 UNL1 0
91 C11 2.11502 -10.4664 1.35395 C.3 3 UNL1 0
92 C12 2.06804 -9.09586 0.646683 C.3 3 UNL1 0
93 C13 0.825637 -8.27377 1.0531 C.3 3 UNL1 0
94 O4 -0.35903 -8.73655 0.244076 O.3 3 UNL1 0
95 C14 0.587651 -8.5616 2.53964 C.3 3 UNL1 0
96 H1 -3.97065 -10.0849 0.243235 H 3 UNL1 0
97 H2 -3.45519 -8.77013 1.44647 H 3 UNL1 0
98 H3 -4.05839 -10.3537 3.37664 H 3 UNL1 0
99 H4 -6.02787 -9.45959 1.14667 H 3 UNL1 0
100 H5 -5.87941 -8.92222 2.92627 H 3 UNL1 0
101 H6 -6.93522 -11.5984 1.62996 H 3 UNL1 0
102 H7 -7.96103 -10.3905 2.60314 H 3 UNL1 0
103 H8 -6.50439 -11.2265 4.79288 H 3 UNL1 0
104 H9 -4.66984 -12.5369 4.4093 H 3 UNL1 0
105 H10 -3.65118 -12.526 2.0448 H 3 UNL1 0
106 H11 -5.31244 -12.2366 1.24334 H 3 UNL1 0
107 H12 0.435342 -10.3817 3.69317 H 3 UNL1 0
108 H13 0.11421 -10.7727 0.566827 H 3 UNL1 0
109 H14 0.585796 -12.0075 1.88499 H 3 UNL1 0
110 H15 2.73236 -11.1881 0.723333 H 3 UNL1 0
111 H16 2.57181 -10.3724 2.39415 H 3 UNL1 0
112 H17 2.01986 -9.21667 -0.485912 H 3 UNL1 0
113 H18 1.03148 -7.17845 0.833854 H 3 UNL1 0
114 H19 1.6021 -8.44267 3.04599 H 3 UNL1 0
115 H20 -0.166045 -7.85782 3.02479 H 3 UNL1 0
116 H 3.03052 -8.55317 0.922132 H 3 UNL1 0
@<TRIPOS>BOND
1 1 2 2
2 2 3 1
3 2 12 1
4 3 4 1
5 4 5 1
6 4 19 1
7 4 20 1
8 5 6 1
9 5 11 1
10 5 21 1
11 6 7 1
12 6 22 1
13 6 23 1
14 7 8 1
15 7 24 1
16 7 25 1
17 8 9 1
18 9 10 1
19 9 11 1
20 9 26 1
21 11 27 1
22 11 28 1
23 12 13 1
24 12 18 1
25 12 29 1
26 13 14 1
27 13 30 1
28 13 31 1
29 14 15 1
30 14 32 1
31 14 33 1
32 15 16 1
33 15 17 1
34 15 34 1
35 16 17 1
36 16 18 1
37 16 35 1
38 18 36 1
39 18 37 1
40 8 38 1
41 10 39 1
42 40 41 2
43 41 42 1
44 41 51 1
45 42 43 1
46 43 44 1
47 43 58 1
48 43 59 1
49 44 45 1
50 44 50 1
51 44 60 1
52 45 46 1
53 45 61 1
54 45 62 1
55 46 47 1
56 46 63 1
57 47 48 1
58 47 64 1
59 48 49 1
60 48 50 1
61 48 65 1
62 50 66 1
63 50 67 1
64 51 52 1
65 51 57 1
66 51 68 1
67 52 53 1
68 52 69 1
69 52 70 1
70 53 54 1
71 53 71 1
72 53 72 1
73 54 55 1
74 54 56 1
75 54 73 1
76 55 56 1
77 55 57 1
78 55 74 1
79 57 75 1
80 57 76 1
81 47 77 1
82 8 49 1
83 78 79 2
84 79 80 1
85 79 89 1
86 80 81 1
87 81 82 1
88 81 96 1
89 81 97 1
90 82 83 1
91 82 88 1
92 82 98 1
93 83 84 1
94 83 99 1
95 83 100 1
96 84 85 1
97 84 101 1
98 84 102 1
99 85 86 1
100 85 87 1
101 85 103 1
102 86 87 1
103 86 88 1
104 86 104 1
105 88 105 1
106 88 106 1
107 89 90 1
108 89 95 1
109 89 107 1
110 90 91 1
111 90 108 1
112 90 109 1
113 91 92 1
114 91 110 1
115 91 111 1
116 92 93 1
117 92 112 1
118 93 94 1
119 93 95 1
120 93 113 1
121 95 114 1
122 95 115 1
123 92 116 1
124 94 46 1
@<TRIPOS>SUBSTRUCTURE
1 UNL1 1 **** **** C14H
2 UNL1 40 **** **** C140
3 UNL1 78 **** **** C141
