# Mol2 file generated by Materials Studio
@<TRIPOS>MOLECULE
mol_CEL2021P
116 124 3 0 0 
SMALL
USER_CHARGES


@<TRIPOS>ATOM
1 O1 0.176456 0.822841 2.67112 O.co2 1 UNL1 0
2 C1 1.10426 -0.246839 2.15158 C.2 1 UNL1 0
3 O2 1.03532 -0.665077 0.70257 O.co2 1 UNL1 0
4 C2 0.19329 0.318217 -0.0780611 C.3 1 UNL1 0
5 C3 -1.27621 0.24509 0.37966 C.3 1 UNL1 0
6 C4 -2.10769 1.24213 -0.449979 C.3 1 UNL1 0
7 C5 -3.46504 0.585926 -0.754801 C.3 1 UNL1 0
8 C6 -4.0575 -0.0138324 0.526393 C.3 1 UNL1 0
9 C7 -3.19517 -1.19159 1.01081 C.3 1 UNL1 0
10 O3 -4.55768 -1.42862 0.390999 O.3 1 UNL1 0
11 C8 -1.87389 -1.16291 0.209103 C.3 1 UNL1 0
12 C9 2.10174 -0.929398 3.10621 C.3 1 UNL1 0
13 C10 2.37639 -2.40444 2.80588 C.3 1 UNL1 0
14 C11 3.18324 -2.95782 4.00397 C.3 1 UNL1 0
15 C12 4.19621 -1.93468 4.56791 C.3 1 UNL1 0
16 C13 4.64501 -1.09053 3.37224 C.3 1 UNL1 0
17 O4 5.01507 -2.04737 2.26417 O.3 1 UNL1 0
18 C14 3.45285 -0.197553 2.96495 C.3 1 UNL1 0
19 H1 0.245416 0.0561351 -1.18512 H 1 UNL1 0
20 H2 0.594187 1.37263 0.0814224 H 1 UNL1 0
21 H3 -1.36247 0.491002 1.48862 H 1 UNL1 0
22 H4 -1.61069 1.42412 -1.45867 H 1 UNL1 0
23 H5 -2.19693 2.22567 0.118031 H 1 UNL1 0
24 H6 -3.26983 -0.286112 -1.46247 H 1 UNL1 0
25 H7 -4.17807 1.32286 -1.25266 H 1 UNL1 0
26 H8 -4.40711 0.629495 1.39998 H 1 UNL1 0
27 H9 -3.13716 -1.12109 2.14727 H 1 UNL1 0
28 H10 -1.1719 -1.93652 0.665631 H 1 UNL1 0
29 H11 -2.03514 -1.38705 -0.89716 H 1 UNL1 0
30 H12 1.71219 -0.895641 4.17614 H 1 UNL1 0
31 H13 2.98896 -2.43944 1.84548 H 1 UNL1 0
32 H14 1.4243 -3.01926 2.68046 H 1 UNL1 0
33 H15 3.72404 -3.88437 3.61867 H 1 UNL1 0
34 H16 2.49899 -3.25807 4.86526 H 1 UNL1 0
35 H18 5.53989 -0.427651 3.61582 H 1 UNL1 0
36 H19 3.39327 0.736401 3.61568 H 1 UNL1 0
37 H20 3.63515 0.111952 1.88336 H 1 UNL1 0
38 H 5.06072 -2.50776 5.04088 H 1 UNL1 0
39 H 5.85514 -2.69279 2.59818 H 1 UNL1 0
40 O1 1.97813 0.681235 5.28703 O.co2 2 UNL1 0
41 C1 2.4915 2.09564 5.25345 C.2 2 UNL1 0
42 O2 1.53108 3.20843 4.90012 O.co2 2 UNL1 0
43 C2 0.52652 3.45833 6.00393 C.3 2 UNL1 0
44 C3 -0.00548663 2.11404 6.53845 C.3 2 UNL1 0
45 C4 -1.07158 2.34803 7.62499 C.3 2 UNL1 0
46 C5 -2.04872 1.16474 7.55441 C.3 2 UNL1 0
47 C6 -1.25047 -0.134982 7.40612 C.3 2 UNL1 0
48 C7 -0.603465 -0.231591 6.01204 C.3 2 UNL1 0
49 O3 -1.8119 -1.07467 6.3766 O.3 2 UNL1 0
50 C8 -0.609788 1.21046 5.45118 C.3 2 UNL1 0
51 C9 4.00665 2.38343 5.35966 C.3 2 UNL1 0
52 C10 4.42427 2.92849 6.74161 C.3 2 UNL1 0
53 C11 5.00212 1.83341 7.66596 C.3 2 UNL1 0
54 C12 4.1799 0.551915 7.49389 C.3 2 UNL1 0
55 C13 4.59379 -0.0103958 6.11272 C.3 2 UNL1 0
56 O4 3.58951 -1.0321 5.62123 O.3 2 UNL1 0
57 C14 4.89936 1.15042 5.13322 C.3 2 UNL1 0
58 H1 -0.333133 4.0801 5.59019 H 2 UNL1 0
59 H2 1.02484 4.02781 6.85396 H 2 UNL1 0
60 H3 0.868092 1.52294 6.9688 H 2 UNL1 0
61 H4 -1.68408 3.28586 7.40113 H 2 UNL1 0
62 H5 -0.55673 2.45304 8.63953 H 2 UNL1 0
63 H6 -2.6541 1.27691 6.59406 H 2 UNL1 0
64 H7 -2.75819 1.14997 8.44812 H 2 UNL1 0
65 H8 -0.567192 -0.536067 8.22564 H 2 UNL1 0
66 H9 0.417412 -0.715727 6.16544 H 2 UNL1 0
67 H10 0.0836693 1.22024 4.54845 H 2 UNL1 0
68 H11 -1.64867 1.57455 5.15262 H 2 UNL1 0
69 H12 4.23458 3.19606 4.59318 H 2 UNL1 0
70 H13 3.5129 3.43334 7.20072 H 2 UNL1 0
71 H14 5.25265 3.70434 6.62425 H 2 UNL1 0
72 H15 4.9791 2.21731 8.73876 H 2 UNL1 0
73 H16 6.07356 1.58253 7.3702 H 2 UNL1 0
74 H18 5.58229 -0.566025 6.22927 H 2 UNL1 0
75 H19 5.95549 1.51824 5.35367 H 2 UNL1 0
76 H20 4.86305 0.78334 4.05709 H 2 UNL1 0
77 H 4.41879 -0.221879 8.29622 H 2 UNL1 0
78 O1 1.63812 0.85286 13.0029 O.co2 3 UNL1 0
79 C1 0.604787 1.5422 12.1448 C.2 3 UNL1 0
80 O2 -0.828189 1.63509 12.6098 O.co2 3 UNL1 0
81 C2 -1.19866 3.09759 12.6575 C.3 3 UNL1 0
82 C3 -2.67259 3.26585 13.0692 C.3 3 UNL1 0
83 C4 -2.99791 4.77162 13.0916 C.3 3 UNL1 0
84 C5 -4.39757 4.9704 12.4848 C.3 3 UNL1 0
85 C6 -5.39327 4.00327 13.1375 C.3 3 UNL1 0
86 C7 -5.03481 2.55406 12.7702 C.3 3 UNL1 0
87 O3 -6.25688 3.22632 12.1774 O.3 3 UNL1 0
88 C8 -3.64289 2.56765 12.0988 C.3 3 UNL1 0
89 C9 1.02048 2.20066 10.8172 C.3 3 UNL1 0
90 C10 2.05324 3.31197 11.0214 C.3 3 UNL1 0
91 C11 2.08993 4.10108 9.69702 C.3 3 UNL1 0
92 C12 1.85524 3.16193 8.49746 C.3 3 UNL1 0
93 C13 2.56028 1.84529 8.82776 C.3 3 UNL1 0
94 O4 2.73484 0.970625 7.60946 O.3 3 UNL1 0
95 C14 1.67019 1.15416 9.88377 C.3 3 UNL1 0
96 H1 -1.04305 3.5551 11.6251 H 3 UNL1 0
97 H2 -0.529814 3.6318 13.4102 H 3 UNL1 0
98 H3 -2.84804 2.80462 14.0966 H 3 UNL1 0
99 H4 -2.27506 5.33513 12.4121 H 3 UNL1 0
100 H5 -2.90812 5.16652 14.1585 H 3 UNL1 0
101 H6 -4.33598 4.68689 11.3824 H 3 UNL1 0
102 H7 -4.73625 6.05465 12.5773 H 3 UNL1 0
103 H8 -5.69685 4.08607 14.2332 H 3 UNL1 0
104 H9 -5.18095 1.91904 13.7054 H 3 UNL1 0
105 H10 -3.31742 1.48647 11.937 H 3 UNL1 0
106 H11 -3.65819 3.12138 11.1015 H 3 UNL1 0
107 H12 0.11148 2.68259 10.3256 H 3 UNL1 0
108 H13 3.05129 2.80295 11.2339 H 3 UNL1 0
109 H14 1.78746 4.02563 11.8699 H 3 UNL1 0
110 H15 3.10736 4.61232 9.63756 H 3 UNL1 0
111 H16 1.26784 4.89 9.66218 H 3 UNL1 0
112 H17 2.24656 3.66595 7.55138 H 3 UNL1 0
113 H18 3.58002 2.12578 9.25209 H 3 UNL1 0
114 H19 0.818999 0.575297 9.39367 H 3 UNL1 0
115 H20 2.33589 0.432625 10.4628 H 3 UNL1 0
116 H 0.747565 2.92378 8.37266 H 3 UNL1 0
@<TRIPOS>BOND
1 1 2 2
2 2 3 1
3 2 12 1
4 3 4 1
5 4 5 1
6 4 19 1
7 4 20 1
8 5 6 1
9 5 11 1
10 5 21 1
11 6 7 1
12 6 22 1
13 6 23 1
14 7 8 1
15 7 24 1
16 7 25 1
17 8 9 1
18 8 10 1
19 8 26 1
20 9 10 1
21 9 11 1
22 9 27 1
23 11 28 1
24 11 29 1
25 12 13 1
26 12 18 1
27 12 30 1
28 13 14 1
29 13 31 1
30 13 32 1
31 14 15 1
32 14 33 1
33 14 34 1
34 15 16 1
35 16 17 1
36 16 18 1
37 16 35 1
38 18 36 1
39 18 37 1
40 15 38 1
41 17 39 1
42 40 41 2
43 41 42 1
44 41 51 1
45 42 43 1
46 43 44 1
47 43 58 1
48 43 59 1
49 44 45 1
50 44 50 1
51 44 60 1
52 45 46 1
53 45 61 1
54 45 62 1
55 46 47 1
56 46 63 1
57 46 64 1
58 47 48 1
59 47 49 1
60 47 65 1
61 48 49 1
62 48 50 1
63 48 66 1
64 50 67 1
65 50 68 1
66 51 52 1
67 51 57 1
68 51 69 1
69 52 53 1
70 52 70 1
71 52 71 1
72 53 54 1
73 53 72 1
74 53 73 1
75 54 55 1
76 55 56 1
77 55 57 1
78 55 74 1
79 57 75 1
80 57 76 1
81 54 77 1
82 15 56 1
83 78 79 2
84 79 80 1
85 79 89 1
86 80 81 1
87 81 82 1
88 81 96 1
89 81 97 1
90 82 83 1
91 82 88 1
92 82 98 1
93 83 84 1
94 83 99 1
95 83 100 1
96 84 85 1
97 84 101 1
98 84 102 1
99 85 86 1
100 85 87 1
101 85 103 1
102 86 87 1
103 86 88 1
104 86 104 1
105 88 105 1
106 88 106 1
107 89 90 1
108 89 95 1
109 89 107 1
110 90 91 1
111 90 108 1
112 90 109 1
113 91 92 1
114 91 110 1
115 91 111 1
116 92 93 1
117 92 112 1
118 93 94 1
119 93 95 1
120 93 113 1
121 95 114 1
122 95 115 1
123 92 116 1
124 54 94 1
@<TRIPOS>SUBSTRUCTURE
1 UNL1 1 **** **** C14H
2 UNL1 40 **** **** C140
3 UNL1 78 **** **** C141
