# Mol2 file generated by Materials Studio
@<TRIPOS>MOLECULE
mol_CEL2021P
116 124 3 0 0 
SMALL
USER_CHARGES


@<TRIPOS>ATOM
1 O1 -0.155839 1.74731 2.17794 O.co2 1 UNL1 0
2 C1 0.616222 0.503064 1.8085 C.2 1 UNL1 0
3 O2 0.675637 0.0472362 0.369838 O.co2 1 UNL1 0
4 C2 -0.316663 0.829311 -0.455807 C.3 1 UNL1 0
5 C3 -1.73022 0.595068 0.104841 C.3 1 UNL1 0
6 C4 -2.74237 1.38375 -0.747048 C.3 1 UNL1 0
7 C5 -4.03636 0.555983 -0.808536 C.3 1 UNL1 0
8 C6 -4.37888 0.0404337 0.593696 C.3 1 UNL1 0
9 C7 -3.35767 -1.01249 1.05962 C.3 1 UNL1 0
10 O3 -4.75778 -1.4149 0.635679 O.3 1 UNL1 0
11 C8 -2.13447 -0.889872 0.120784 C.3 1 UNL1 0
12 C9 1.26851 -0.351105 2.91021 C.3 1 UNL1 0
13 C10 1.59157 -1.77858 2.46292 C.3 1 UNL1 0
14 C11 1.99525 -2.5648 3.73003 C.3 1 UNL1 0
15 C12 2.77447 -1.69399 4.74184 C.3 1 UNL1 0
16 C13 3.59829 -0.704657 3.9107 C.3 1 UNL1 0
17 O4 4.29048 -1.51325 2.84046 O.3 1 UNL1 0
18 C14 2.61335 0.306102 3.28292 C.3 1 UNL1 0
19 H1 -0.273887 0.474124 -1.53779 H 1 UNL1 0
20 H2 -0.0670888 1.94057 -0.40895 H 1 UNL1 0
21 H3 -1.77484 0.940751 1.1899 H 1 UNL1 0
22 H4 -2.37493 1.47779 -1.82177 H 1 UNL1 0
23 H5 -2.88376 2.42086 -0.29601 H 1 UNL1 0
24 H6 -3.822 -0.364608 -1.4458 H 1 UNL1 0
25 H7 -4.8906 1.14838 -1.2763 H 1 UNL1 0
26 H8 -4.69328 0.731343 1.44417 H 1 UNL1 0
27 H9 -3.18579 -0.83015 2.17175 H 1 UNL1 0
28 H10 -1.29049 -1.51089 0.569776 H 1 UNL1 0
29 H11 -2.35939 -1.24838 -0.937748 H 1 UNL1 0
30 H12 0.579811 -0.431126 3.81461 H 1 UNL1 0
31 H13 2.46338 -1.70399 1.7326 H 1 UNL1 0
32 H14 0.710932 -2.30132 1.9619 H 1 UNL1 0
33 H15 2.62934 -3.44282 3.37442 H 1 UNL1 0
34 H16 1.07917 -2.96484 4.27799 H 1 UNL1 0
35 H18 4.37846 -0.141829 4.52116 H 1 UNL1 0
36 H19 2.36109 1.15856 3.99458 H 1 UNL1 0
37 H20 3.12966 0.731785 2.36022 H 1 UNL1 0
38 H 3.41878 -2.37999 5.38513 H 1 UNL1 0
39 H 4.97165 -2.24765 3.31844 H 1 UNL1 0
40 O1 1.93668 3.68342 8.29937 O.co2 2 UNL1 0
41 C1 2.42333 3.03964 7.02341 C.2 2 UNL1 0
42 O2 1.633 3.20737 5.74366 O.co2 2 UNL1 0
43 C2 0.143537 3.3306 5.98164 C.3 2 UNL1 0
44 C3 -0.532274 1.96811 6.23654 C.3 2 UNL1 0
45 C4 -2.03628 2.19781 6.48258 C.3 2 UNL1 0
46 C5 -2.80572 1.02392 5.85393 C.3 2 UNL1 0
47 C6 -2.14793 -0.305452 6.24342 C.3 2 UNL1 0
48 C7 -0.754322 -0.427045 5.60621 C.3 2 UNL1 0
49 O3 -1.9203 -1.24859 5.09154 O.3 2 UNL1 0
50 C8 -0.356088 0.970571 5.07635 C.3 2 UNL1 0
51 C9 3.66442 2.12361 7.04215 C.3 2 UNL1 0
52 C10 3.87356 1.53277 8.44131 C.3 2 UNL1 0
53 C11 2.5063 1.00223 8.91481 C.3 2 UNL1 0
54 C12 1.64389 0.53953 7.7238 C.3 2 UNL1 0
55 C13 2.56679 -0.172798 6.72735 C.3 2 UNL1 0
56 O4 1.83383 -0.919445 5.6359 O.3 2 UNL1 0
57 C14 3.43901 0.930343 6.09097 C.3 2 UNL1 0
58 H1 -0.332655 3.78223 5.05005 H 2 UNL1 0
59 H2 -0.0368525 4.02608 6.86667 H 2 UNL1 0
60 H3 -0.0839833 1.46782 7.1539 H 2 UNL1 0
61 H4 -2.38934 3.13722 5.94187 H 2 UNL1 0
62 H5 -2.21692 2.30466 7.60379 H 2 UNL1 0
63 H6 -2.70227 1.11724 4.72227 H 2 UNL1 0
64 H7 -3.90975 1.05576 6.13655 H 2 UNL1 0
65 H8 -2.15359 -0.707872 7.31001 H 2 UNL1 0
66 H9 -0.0786305 -0.914104 6.38385 H 2 UNL1 0
67 H10 0.741217 0.921731 4.76803 H 2 UNL1 0
68 H11 -0.99381 1.28915 4.18698 H 2 UNL1 0
69 H12 4.57192 2.71072 6.67983 H 2 UNL1 0
70 H13 4.26072 2.28804 9.20203 H 2 UNL1 0
71 H14 4.62157 0.680525 8.32482 H 2 UNL1 0
72 H15 1.91968 1.8257 9.44058 H 2 UNL1 0
73 H16 2.70045 0.157482 9.65465 H 2 UNL1 0
74 H18 3.19836 -0.897577 7.3397 H 2 UNL1 0
75 H19 4.42349 0.445268 5.78404 H 2 UNL1 0
76 H20 2.93098 1.36576 5.17063 H 2 UNL1 0
77 H 1.22201 1.44802 7.18516 H 2 UNL1 0
78 O1 -0.343004 4.69156 13.1473 O.co2 3 UNL1 0
79 C1 0.335019 4.10762 11.9311 C.2 3 UNL1 0
80 O2 -0.107782 4.52633 10.5507 O.co2 3 UNL1 0
81 C2 -1.44285 3.8857 10.2586 C.3 3 UNL1 0
82 C3 -1.28515 2.35433 10.2719 C.3 3 UNL1 0
83 C4 -2.64484 1.70684 9.93512 C.3 3 UNL1 0
84 C5 -2.45572 0.297357 9.33419 C.3 3 UNL1 0
85 C6 -1.26804 -0.338638 10.0635 C.3 3 UNL1 0
86 C7 -0.00827693 0.373458 9.52834 C.3 3 UNL1 0
87 O3 0.512751 -0.293912 8.2758 O.3 3 UNL1 0
88 C8 -0.305119 1.85404 9.20901 C.3 3 UNL1 0
89 C9 1.53568 3.15985 12.104 C.3 3 UNL1 0
90 C10 2.79039 3.6008 11.3391 C.3 3 UNL1 0
91 C11 3.70657 2.36269 11.4083 C.3 3 UNL1 0
92 C12 3.48638 1.62628 12.7454 C.3 3 UNL1 0
93 C13 3.47618 2.84974 13.6918 C.3 3 UNL1 0
94 O4 4.21928 1.59518 14.058 O.3 3 UNL1 0
95 C14 1.98382 3.22317 13.5781 C.3 3 UNL1 0
96 H1 -1.80893 4.21738 9.23137 H 3 UNL1 0
97 H2 -2.19808 4.19926 11.0528 H 3 UNL1 0
98 H3 -0.893242 2.00462 11.2838 H 3 UNL1 0
99 H4 -3.20697 2.31994 9.15533 H 3 UNL1 0
100 H5 -3.25098 1.67744 10.9005 H 3 UNL1 0
101 H6 -2.17468 0.36479 8.23188 H 3 UNL1 0
102 H7 -3.42462 -0.290254 9.45708 H 3 UNL1 0
103 H8 -1.16569 -1.45905 9.88035 H 3 UNL1 0
104 H9 0.789761 0.292113 10.3384 H 3 UNL1 0
105 H10 0.674026 2.43535 9.20028 H 3 UNL1 0
106 H11 -0.839055 1.96466 8.211 H 3 UNL1 0
107 H12 1.27054 2.10279 11.7685 H 3 UNL1 0
108 H13 3.23184 4.49469 11.891 H 3 UNL1 0
109 H14 2.59406 3.86225 10.2479 H 3 UNL1 0
110 H15 4.79349 2.65198 11.2224 H 3 UNL1 0
111 H16 3.37471 1.62748 10.6054 H 3 UNL1 0
112 H17 2.45721 1.14434 12.8366 H 3 UNL1 0
113 H18 4.17696 3.61964 13.2271 H 3 UNL1 0
114 H19 1.30622 2.58315 14.2348 H 3 UNL1 0
115 H20 1.91807 4.30933 13.9181 H 3 UNL1 0
116 H -1.41834 -0.136616 11.1752 H 3 UNL1 0
@<TRIPOS>BOND
1 1 2 2
2 2 3 1
3 2 12 1
4 3 4 1
5 4 5 1
6 4 19 1
7 4 20 1
8 5 6 1
9 5 11 1
10 5 21 1
11 6 7 1
12 6 22 1
13 6 23 1
14 7 8 1
15 7 24 1
16 7 25 1
17 8 9 1
18 8 10 1
19 8 26 1
20 9 10 1
21 9 11 1
22 9 27 1
23 11 28 1
24 11 29 1
25 12 13 1
26 12 18 1
27 12 30 1
28 13 14 1
29 13 31 1
30 13 32 1
31 14 15 1
32 14 33 1
33 14 34 1
34 15 16 1
35 16 17 1
36 16 18 1
37 16 35 1
38 18 36 1
39 18 37 1
40 15 38 1
41 17 39 1
42 40 41 2
43 41 42 1
44 41 51 1
45 42 43 1
46 43 44 1
47 43 58 1
48 43 59 1
49 44 45 1
50 44 50 1
51 44 60 1
52 45 46 1
53 45 61 1
54 45 62 1
55 46 47 1
56 46 63 1
57 46 64 1
58 47 48 1
59 47 49 1
60 47 65 1
61 48 49 1
62 48 50 1
63 48 66 1
64 50 67 1
65 50 68 1
66 51 52 1
67 51 57 1
68 51 69 1
69 52 53 1
70 52 70 1
71 52 71 1
72 53 54 1
73 53 72 1
74 53 73 1
75 54 55 1
76 55 56 1
77 55 57 1
78 55 74 1
79 57 75 1
80 57 76 1
81 54 77 1
82 15 56 1
83 78 79 2
84 79 80 1
85 79 89 1
86 80 81 1
87 81 82 1
88 81 96 1
89 81 97 1
90 82 83 1
91 82 88 1
92 82 98 1
93 83 84 1
94 83 99 1
95 83 100 1
96 84 85 1
97 84 101 1
98 84 102 1
99 85 86 1
100 85 103 1
101 86 87 1
102 86 88 1
103 86 104 1
104 88 105 1
105 88 106 1
106 89 90 1
107 89 95 1
108 89 107 1
109 90 91 1
110 90 108 1
111 90 109 1
112 91 92 1
113 91 110 1
114 91 111 1
115 92 93 1
116 92 94 1
117 92 112 1
118 93 94 1
119 93 95 1
120 93 113 1
121 95 114 1
122 95 115 1
123 85 116 1
124 54 87 1
@<TRIPOS>SUBSTRUCTURE
1 UNL1 1 **** **** C14H
2 UNL1 40 **** **** C140
3 UNL1 78 **** **** C141
