# Mol2 file generated by Materials Studio
@<TRIPOS>MOLECULE
mol_CEL2021P
116 124 3 0 0 
SMALL
USER_CHARGES


@<TRIPOS>ATOM
1 O1 0.562932 0.257732 2.00202 O.co2 1 UNL1 0
2 C1 1.33503 -0.339079 0.849615 C.2 1 UNL1 0
3 O2 0.798363 -0.241067 -0.559243 O.co2 1 UNL1 0
4 C2 -0.231255 0.85928 -0.669851 C.3 1 UNL1 0
5 C3 -1.50391 0.504088 0.122712 C.3 1 UNL1 0
6 C4 -2.51669 1.65346 -0.0393188 C.3 1 UNL1 0
7 C5 -3.92189 1.03716 -0.138869 C.3 1 UNL1 0
8 C6 -4.10854 -0.00825767 0.967284 C.3 1 UNL1 0
9 C7 -3.18915 -1.21768 0.726255 C.3 1 UNL1 0
10 O3 -4.68469 -1.31828 0.498348 O.3 1 UNL1 0
11 C8 -2.1619 -0.803849 -0.352774 C.3 1 UNL1 0
12 C9 2.68362 -1.03314 1.1148 C.3 1 UNL1 0
13 C10 3.30265 -1.73422 -0.0989076 C.3 1 UNL1 0
14 C11 4.45218 -2.60962 0.45204 C.3 1 UNL1 0
15 C12 5.13798 -1.94449 1.66582 C.3 1 UNL1 0
16 C13 5.15777 -0.441545 1.37787 C.3 1 UNL1 0
17 O4 5.6415 -0.25514 -0.0409119 O.3 1 UNL1 0
18 C14 3.70142 0.0371912 1.56748 C.3 1 UNL1 0
19 H1 -0.511533 0.997364 -1.76637 H 1 UNL1 0
20 H2 0.212319 1.8304 -0.270748 H 1 UNL1 0
21 H3 -1.25783 0.349893 1.2242 H 1 UNL1 0
22 H4 -2.3397 2.19687 -1.02554 H 1 UNL1 0
23 H5 -2.40282 2.38475 0.827888 H 1 UNL1 0
24 H6 -3.97709 0.474476 -1.12893 H 1 UNL1 0
25 H7 -4.7302 1.84073 -0.116486 H 1 UNL1 0
26 H8 -4.15353 0.26715 2.07273 H 1 UNL1 0
27 H9 -2.79177 -1.5422 1.74413 H 1 UNL1 0
28 H10 -1.37625 -1.62749 -0.41644 H 1 UNL1 0
29 H11 -2.6449 -0.649136 -1.37362 H 1 UNL1 0
30 H12 2.54325 -1.83235 1.91507 H 1 UNL1 0
31 H13 3.69602 -0.915541 -0.788038 H 1 UNL1 0
32 H14 2.5664 -2.39743 -0.662168 H 1 UNL1 0
33 H15 5.18804 -2.7764 -0.402526 H 1 UNL1 0
34 H16 4.06005 -3.6174 0.812503 H 1 UNL1 0
35 H18 5.82673 0.138097 2.09628 H 1 UNL1 0
36 H19 3.48087 0.249117 2.66606 H 1 UNL1 0
37 H20 3.58646 1.00031 0.968479 H 1 UNL1 0
38 H 6.17574 -2.38925 1.82449 H 1 UNL1 0
39 H 6.67705 -0.643676 -0.133803 H 1 UNL1 0
40 O1 2.64099 0.591439 8.05094 O.co2 2 UNL1 0
41 C1 2.85873 0.903645 6.58975 C.2 2 UNL1 0
42 O2 1.91196 1.82505 5.85758 O.co2 2 UNL1 0
43 C2 0.763497 2.24072 6.74424 C.3 2 UNL1 0
44 C3 -0.067809 1.00712 7.14181 C.3 2 UNL1 0
45 C4 -1.25105 1.47897 8.00891 C.3 2 UNL1 0
46 C5 -2.47631 0.623955 7.64326 C.3 2 UNL1 0
47 C6 -2.07921 -0.856691 7.6148 C.3 2 UNL1 0
48 C7 -1.114 -1.13455 6.4502 C.3 2 UNL1 0
49 O3 -2.55368 -1.6088 6.39911 O.3 2 UNL1 0
50 C8 -0.621269 0.235703 5.92933 C.3 2 UNL1 0
51 C9 4.08092 0.329842 5.85099 C.3 2 UNL1 0
52 C10 5.01991 -0.413343 6.81926 C.3 2 UNL1 0
53 C11 6.23451 -0.946757 6.03422 C.3 2 UNL1 0
54 C12 5.76514 -1.91236 4.92908 C.3 2 UNL1 0
55 C13 4.80282 -1.17193 3.98307 C.3 2 UNL1 0
56 O4 4.28834 -2.09017 2.90346 O.3 2 UNL1 0
57 C14 3.59069 -0.650522 4.77231 C.3 2 UNL1 0
58 H1 0.0976783 2.96953 6.17378 H 2 UNL1 0
59 H2 1.16786 2.7497 7.68064 H 2 UNL1 0
60 H3 0.582257 0.268189 7.7171 H 2 UNL1 0
61 H4 -1.52756 2.55278 7.74409 H 2 UNL1 0
62 H5 -0.961619 1.41678 9.10986 H 2 UNL1 0
63 H6 -2.77829 0.898682 6.57866 H 2 UNL1 0
64 H7 -3.35036 0.823988 8.34722 H 2 UNL1 0
65 H8 -1.77854 -1.42953 8.55322 H 2 UNL1 0
66 H9 -0.333447 -1.87173 6.83388 H 2 UNL1 0
67 H10 0.217442 0.0418946 5.18191 H 2 UNL1 0
68 H11 -1.45498 0.834334 5.43272 H 2 UNL1 0
69 H12 4.64728 1.18485 5.35376 H 2 UNL1 0
70 H13 4.46069 -1.28251 7.30013 H 2 UNL1 0
71 H14 5.37746 0.304342 7.62966 H 2 UNL1 0
72 H15 6.9351 -1.49675 6.7455 H 2 UNL1 0
73 H16 6.78777 -0.0704669 5.55892 H 2 UNL1 0
74 H17 5.22191 -2.79458 5.40472 H 2 UNL1 0
75 H18 5.33198 -0.282572 3.50513 H 2 UNL1 0
76 H19 2.88902 -0.105303 4.05795 H 2 UNL1 0
77 H20 3.03888 -1.52038 5.26068 H 2 UNL1 0
78 H 6.66482 -2.29106 4.34029 H 2 UNL1 0
79 O1 -0.880003 4.4656 13.8862 O.co2 3 UNL1 0
80 C1 -0.399336 4.10159 12.5016 C.2 3 UNL1 0
81 O2 -1.14174 4.59779 11.2835 O.co2 3 UNL1 0
82 C2 -2.25274 5.54496 11.671 C.3 3 UNL1 0
83 C3 -3.31079 4.80646 12.512 C.3 3 UNL1 0
84 C4 -4.44469 5.79192 12.8538 C.3 3 UNL1 0
85 C5 -5.76582 5.00604 12.8357 C.3 3 UNL1 0
86 C6 -5.5907 3.69323 13.6081 C.3 3 UNL1 0
87 C7 -4.64105 2.74236 12.8586 C.3 3 UNL1 0
88 O3 -6.13491 2.48175 12.8996 O.3 3 UNL1 0
89 C8 -3.91301 3.58859 11.7879 C.3 3 UNL1 0
90 C9 0.899299 3.29301 12.3289 C.3 3 UNL1 0
91 C10 1.96247 4.02202 11.4967 C.3 3 UNL1 0
92 C11 2.98827 2.91668 11.1776 C.3 3 UNL1 0
93 C12 3.07002 1.92939 12.3601 C.3 3 UNL1 0
94 C13 3.09363 2.94902 13.5237 C.3 3 UNL1 0
95 O4 4.00853 1.75559 13.5215 O.3 3 UNL1 0
96 C14 1.5734 3.14015 13.7064 C.3 3 UNL1 0
97 H1 -2.74628 5.94355 10.7238 H 3 UNL1 0
98 H2 -1.82382 6.41477 12.2702 H 3 UNL1 0
99 H3 -2.84012 4.39929 13.4664 H 3 UNL1 0
100 H4 -4.53944 6.58742 12.0426 H 3 UNL1 0
101 H5 -4.22339 6.28692 13.8564 H 3 UNL1 0
102 H6 -5.97423 4.7164 11.753 H 3 UNL1 0
103 H7 -6.63053 5.63468 13.2319 H 3 UNL1 0
104 H8 -5.42006 3.65989 14.7347 H 3 UNL1 0
105 H9 -4.00159 2.22431 13.6475 H 3 UNL1 0
106 H10 -3.0754 2.94926 11.3527 H 3 UNL1 0
107 H11 -4.61256 3.93387 10.9566 H 3 UNL1 0
108 H12 0.691174 2.28874 11.8306 H 3 UNL1 0
109 H13 2.40376 4.84967 12.1451 H 3 UNL1 0
110 H14 1.56262 4.4491 10.5185 H 3 UNL1 0
111 H15 3.99555 3.36987 10.896 H 3 UNL1 0
112 H16 2.59097 2.30872 10.2988 H 3 UNL1 0
113 H17 2.12596 1.30593 12.4999 H 3 UNL1 0
114 H18 3.62637 3.87534 13.1259 H 3 UNL1 0
115 H19 1.07941 2.30587 14.3058 H 3 UNL1 0
116 H20 1.45468 4.1261 14.2666 H 3 UNL1 0
@<TRIPOS>BOND
1 1 2 2
2 2 3 1
3 2 12 1
4 3 4 1
5 4 5 1
6 4 19 1
7 4 20 1
8 5 6 1
9 5 11 1
10 5 21 1
11 6 7 1
12 6 22 1
13 6 23 1
14 7 8 1
15 7 24 1
16 7 25 1
17 8 9 1
18 8 10 1
19 8 26 1
20 9 10 1
21 9 11 1
22 9 27 1
23 11 28 1
24 11 29 1
25 12 13 1
26 12 18 1
27 12 30 1
28 13 14 1
29 13 31 1
30 13 32 1
31 14 15 1
32 14 33 1
33 14 34 1
34 15 16 1
35 16 17 1
36 16 18 1
37 16 35 1
38 18 36 1
39 18 37 1
40 15 38 1
41 17 39 1
42 40 41 2
43 41 42 1
44 41 51 1
45 42 43 1
46 43 44 1
47 43 58 1
48 43 59 1
49 44 45 1
50 44 50 1
51 44 60 1
52 45 46 1
53 45 61 1
54 45 62 1
55 46 47 1
56 46 63 1
57 46 64 1
58 47 48 1
59 47 49 1
60 47 65 1
61 48 49 1
62 48 50 1
63 48 66 1
64 50 67 1
65 50 68 1
66 51 52 1
67 51 57 1
68 51 69 1
69 52 53 1
70 52 70 1
71 52 71 1
72 53 54 1
73 53 72 1
74 53 73 1
75 54 55 1
76 54 74 1
77 55 56 1
78 55 57 1
79 55 75 1
80 57 76 1
81 57 77 1
82 54 78 1
83 15 56 1
84 79 80 2
85 80 81 1
86 80 90 1
87 81 82 1
88 82 83 1
89 82 97 1
90 82 98 1
91 83 84 1
92 83 89 1
93 83 99 1
94 84 85 1
95 84 100 1
96 84 101 1
97 85 86 1
98 85 102 1
99 85 103 1
100 86 87 1
101 86 88 1
102 86 104 1
103 87 88 1
104 87 89 1
105 87 105 1
106 89 106 1
107 89 107 1
108 90 91 1
109 90 96 1
110 90 108 1
111 91 92 1
112 91 109 1
113 91 110 1
114 92 93 1
115 92 111 1
116 92 112 1
117 93 94 1
118 93 95 1
119 93 113 1
120 94 95 1
121 94 96 1
122 94 114 1
123 96 115 1
124 96 116 1
@<TRIPOS>SUBSTRUCTURE
1 UNL1 1 **** **** C14H
2 UNL1 40 **** **** C140
3 UNL1 79 **** **** C141
