# Mol2 file generated by Materials Studio
@<TRIPOS>MOLECULE
mol_TCM104
101 103 3 0 0 
SMALL
USER_CHARGES


@<TRIPOS>ATOM
1 C1 -3.9594 -2.15478 -0.277837 C.3 1 UNL1 0
2 C2 -3.611 -0.670875 -0.504145 C.3 1 UNL1 0
3 C3 -2.32801 -0.251457 0.241743 C.3 1 UNL1 0
4 C4 -1.16272 -1.13815 -0.232008 C.3 1 UNL1 0
5 O1 0.139152 -0.587965 0.296703 O.3 1 UNL1 0
6 C5 1.27502 -1.37297 -0.314345 C.3 1 UNL1 0
7 C6 2.59177 -0.595887 -0.128453 C.ar 1 UNL1 0
8 C7 3.91835 -1.35383 0.0658838 C.ar 1 UNL1 0
9 C8 5.23225 -0.570751 0.248395 C.ar 1 UNL1 0
10 C9 5.21628 0.969407 0.258884 C.ar 1 UNL1 0
11 C10 3.88489 1.72639 0.0989716 C.ar 1 UNL1 0
12 C11 2.57181 0.943344 -0.0851599 C.ar 1 UNL1 0
13 C12 -2.53608 -0.341008 1.7663 C.3 1 UNL1 0
14 O2 -3.16982 2.07702 0.332889 O.3 1 UNL1 0
15 C13 -2.01898 1.21176 -0.120596 C.3 1 UNL1 0
16 H1 -3.27848 -2.58634 0.528206 H 1 UNL1 0
17 H2 -3.81142 -2.73233 -1.24951 H 1 UNL1 0
18 H3 -5.04605 -2.24347 0.055212 H 1 UNL1 0
19 H4 -3.46741 -0.489462 -1.62042 H 1 UNL1 0
20 H5 -4.48755 -0.0419809 -0.135709 H 1 UNL1 0
21 H6 -1.13448 -1.15108 -1.37158 H 1 UNL1 0
22 H7 -1.31085 -2.19976 0.156127 H 1 UNL1 0
23 H8 1.07702 -1.52505 -1.42667 H 1 UNL1 0
24 H9 1.35568 -2.3873 0.199692 H 1 UNL1 0
25 H10 3.92754 -2.49376 0.0746035 H 1 UNL1 0
26 H11 6.21681 -1.13113 0.375752 H 1 UNL1 0
27 H12 6.19 1.54868 0.385016 H 1 UNL1 0
28 H13 3.87151 2.86617 0.11692 H 1 UNL1 0
29 H14 1.58455 1.50375 -0.189454 H 1 UNL1 0
30 H15 -3.37446 0.36555 2.07855 H 1 UNL1 0
31 H16 -1.57207 -0.0473832 2.29929 H 1 UNL1 0
32 H17 -1.89058 1.30717 -1.24932 H 1 UNL1 0
33 H18 -1.06 1.53831 0.402209 H 1 UNL1 0
34 H -2.79306 2.86405 1.01899 H 1 UNL1 0
35 C1 -3.45053 -4.32025 4.17567 C.3 2 UNL1 0
36 C2 -3.40792 -4.45737 2.6435 C.3 2 UNL1 0
37 C3 -2.0069 -4.05195 2.15396 C.3 2 UNL1 0
38 C4 -0.972001 -4.97916 2.81596 C.3 2 UNL1 0
39 O1 0.431909 -4.53446 2.48997 O.3 2 UNL1 0
40 C5 1.38641 -5.43147 3.24088 C.3 2 UNL1 0
41 C6 2.80194 -4.83118 3.18491 C.ar 2 UNL1 0
42 C7 4.03446 -5.75339 3.21927 C.ar 2 UNL1 0
43 C8 5.44892 -5.14821 3.15436 C.ar 2 UNL1 0
44 C9 5.62916 -3.62297 3.03725 C.ar 2 UNL1 0
45 C10 4.39518 -2.70399 2.97069 C.ar 2 UNL1 0
46 C11 2.98137 -3.30923 3.03806 C.ar 2 UNL1 0
47 C12 -1.72276 -2.59189 2.55013 C.3 2 UNL1 0
48 O2 -2.90684 -1.75617 2.13292 O.3 2 UNL1 0
49 C13 -1.94465 -4.17066 0.620157 C.3 2 UNL1 0
50 H1 -3.97658 -5.22689 4.62385 H 2 UNL1 0
51 H2 -4.01963 -3.37329 4.45675 H 2 UNL1 0
52 H3 -2.38695 -4.25897 4.58143 H 2 UNL1 0
53 H4 -3.6179 -5.53874 2.34997 H 2 UNL1 0
54 H5 -4.18821 -3.77394 2.17057 H 2 UNL1 0
55 H6 -1.12598 -6.04395 2.43898 H 2 UNL1 0
56 H7 -1.1109 -4.95727 3.94725 H 2 UNL1 0
57 H8 1.39278 -6.46588 2.76176 H 2 UNL1 0
58 H9 1.05188 -5.5176 4.32728 H 2 UNL1 0
59 H10 3.89931 -6.88296 3.29268 H 2 UNL1 0
60 H11 6.3625 -5.829 3.19299 H 2 UNL1 0
61 H12 6.67635 -3.17396 2.99982 H 2 UNL1 0
62 H13 4.52904 -1.57622 2.87159 H 2 UNL1 0
63 H14 2.06729 -2.63056 2.97923 H 2 UNL1 0
64 H15 -0.785231 -2.22406 2.01595 H 2 UNL1 0
65 H16 -1.57307 -2.52653 3.67836 H 2 UNL1 0
66 H17 -2.49811 -3.29279 0.148307 H 2 UNL1 0
67 H18 -2.43374 -5.14754 0.294461 H 2 UNL1 0
68 H -0.856005 -4.15952 0.282031 H 2 UNL1 0
69 C1 -5.93514 -3.23884 -4.73398 C.3 3 UNL1 0
70 C2 -5.56814 -2.31684 -5.85898 C.3 3 UNL1 0
71 C3 -4.20614 -1.73084 -5.74398 C.3 3 UNL1 0
72 C4 -3.06014 -2.69484 -5.71198 C.3 3 UNL1 0
73 O1 -1.83114 -2.06884 -5.60498 O.3 3 UNL1 0
74 C5 -0.77814 -2.97584 -5.57598 C.3 3 UNL1 0
75 C6 0.52986 -2.25284 -5.45898 C.ar 3 UNL1 0
76 C7 1.72786 -2.93184 -5.41098 C.ar 3 UNL1 0
77 C8 2.93086 -2.25484 -5.30298 C.ar 3 UNL1 0
78 C9 2.97186 -0.873835 -5.23898 C.ar 3 UNL1 0
79 C10 1.77686 -0.196835 -5.28798 C.ar 3 UNL1 0
80 C11 0.58386 -0.875835 -5.39498 C.ar 3 UNL1 0
81 C12 -4.15714 -0.657835 -4.65998 C.3 3 UNL1 0
82 O2 -4.71014 0.220165 -5.59498 O.3 3 UNL1 0
83 C13 -3.99514 -0.497835 -6.57798 C.3 3 UNL1 0
84 H1 -5.38744 -4.23051 -4.86132 H 3 UNL1 0
85 H2 -7.06027 -3.42206 -4.74447 H 3 UNL1 0
86 H3 -5.6366 -2.7646 -3.74122 H 3 UNL1 0
87 H4 -5.63603 -2.89309 -6.84027 H 3 UNL1 0
88 H5 -6.34201 -1.47985 -5.87278 H 3 UNL1 0
89 H6 -3.07508 -3.3174 -6.66685 H 3 UNL1 0
90 H7 -3.17381 -3.39068 -4.81616 H 3 UNL1 0
91 H8 -0.784232 -3.5917 -6.53529 H 3 UNL1 0
92 H9 -0.899912 -3.67097 -4.68068 H 3 UNL1 0
93 H10 1.73994 -4.0707 -5.46031 H 3 UNL1 0
94 H11 3.91073 -2.83624 -5.26533 H 3 UNL1 0
95 H12 3.97344 -0.336883 -5.1489 H 3 UNL1 0
96 H13 1.76459 0.942086 -5.23996 H 3 UNL1 0
97 H14 -0.378285 -0.265406 -5.43039 H 3 UNL1 0
98 H15 -3.09229 -0.37596 -4.3663 H 3 UNL1 0
99 H16 -4.78739 -0.988335 -3.76939 H 3 UNL1 0
100 H17 -4.54361 -0.542585 -7.57637 H 3 UNL1 0
101 H18 -2.87767 -0.30679 -6.69784 H 3 UNL1 0
@<TRIPOS>BOND
1 2 3 1
2 2 19 1
3 2 20 1
4 3 4 1
5 3 13 1
6 3 15 1
7 4 5 1
8 4 21 1
9 4 22 1
10 5 6 1
11 6 7 1
12 6 23 1
13 6 24 1
14 7 8 am
15 7 12 am
16 8 9 am
17 8 25 1
18 9 10 am
19 9 26 1
20 10 11 am
21 10 27 1
22 11 12 am
23 11 28 1
24 12 29 1
25 13 30 1
26 13 31 1
27 14 15 1
28 15 32 1
29 15 33 1
30 1 16 1
31 1 17 1
32 1 18 1
33 1 2 1
34 14 34 1
35 36 37 1
36 36 53 1
37 36 54 1
38 37 38 1
39 37 47 1
40 37 49 1
41 38 39 1
42 38 55 1
43 38 56 1
44 39 40 1
45 40 41 1
46 40 57 1
47 40 58 1
48 41 42 am
49 41 46 am
50 42 43 am
51 42 59 1
52 43 44 am
53 43 60 1
54 44 45 am
55 44 61 1
56 45 46 am
57 45 62 1
58 46 63 1
59 47 48 1
60 47 64 1
61 47 65 1
62 49 66 1
63 49 67 1
64 35 50 1
65 35 51 1
66 35 52 1
67 35 36 1
68 49 68 1
69 13 48 1
70 70 71 1
71 70 87 1
72 70 88 1
73 71 72 1
74 71 81 1
75 71 83 1
76 72 73 1
77 72 89 1
78 72 90 1
79 73 74 1
80 74 75 1
81 74 91 1
82 74 92 1
83 75 76 am
84 75 80 am
85 76 77 am
86 76 93 1
87 77 78 am
88 77 94 1
89 78 79 am
90 78 95 1
91 79 80 am
92 79 96 1
93 80 97 1
94 81 82 1
95 81 98 1
96 81 99 1
97 82 83 1
98 83 100 1
99 83 101 1
100 69 84 1
101 69 85 1
102 69 86 1
103 69 70 1
@<TRIPOS>SUBSTRUCTURE
1 UNL1 1 **** **** C13H
2 UNL1 35 **** **** C130
3 UNL1 69 **** **** C131
