# Mol2 file generated by Materials Studio
@<TRIPOS>MOLECULE
"mol_EX-121"
107 106 3 0 0 
SMALL
USER_CHARGES


@<TRIPOS>ATOM
1 C1 -2.58564 0.933089 1.18781 C.3 1 UNL1 0
2 C2 -2.02716 1.18526 -0.224332 C.3 1 UNL1 0
3 C3 -0.852845 0.222817 -0.477965 C.3 1 UNL1 0
4 C4 0.235248 0.478617 0.582206 C.3 1 UNL1 0
5 C5 1.49862 -0.374504 0.347484 C.3 1 UNL1 0
6 C6 1.27944 -1.88892 0.54949 C.3 1 UNL1 0
7 C7 0.259232 -2.49636 -0.431437 C.3 1 UNL1 0
8 C8 2.56221 0.0703579 1.36892 C.3 1 UNL1 0
9 O1 2.79007 1.55997 1.26933 O.3 1 UNL1 0
10 C9 3.84354 1.9343 2.28379 C.3 1 UNL1 0
11 C10 5.2 1.36419 1.83487 C.3 1 UNL1 0
12 O2 5.67912 3.53015 0.736764 O.3 1 UNL1 0
13 C11 5.58468 2.04114 0.507722 C.3 1 UNL1 0
14 H1 -1.76118 1.1086 1.95541 H 1 UNL1 0
15 H2 -2.95256 -0.143523 1.26397 H 1 UNL1 0
16 H3 -3.45225 1.6462 1.38809 H 1 UNL1 0
17 H4 -2.8444 1.00625 -0.99885 H 1 UNL1 0
18 H5 -1.65915 2.26152 -0.300381 H 1 UNL1 0
19 H6 -0.426225 0.414299 -1.51767 H 1 UNL1 0
20 H7 -1.23095 -0.847457 -0.410148 H 1 UNL1 0
21 H8 -0.182107 0.276614 1.62381 H 1 UNL1 0
22 H9 0.537924 1.5752 0.509051 H 1 UNL1 0
23 H10 1.88738 -0.174757 -0.705705 H 1 UNL1 0
24 H11 0.925937 -2.07776 1.61673 H 1 UNL1 0
25 H12 2.27986 -2.41221 0.392281 H 1 UNL1 0
26 H13 0.201557 -3.62172 -0.258162 H 1 UNL1 0
27 H14 0.590069 -2.29468 -1.50342 H 1 UNL1 0
28 H15 -0.77018 -2.04661 -0.251933 H 1 UNL1 0
29 H16 3.53919 -0.484318 1.17438 H 1 UNL1 0
30 H17 2.19392 -0.171491 2.42035 H 1 UNL1 0
31 H18 3.55407 1.49047 3.28966 H 1 UNL1 0
32 H19 3.92251 3.06839 2.36936 H 1 UNL1 0
33 H20 5.11259 0.238715 1.67858 H 1 UNL1 0
34 H21 4.78373 1.82561 -0.274242 H 1 UNL1 0
35 H22 6.59034 1.64118 0.149226 H 1 UNL1 0
36 H 4.7001 3.90512 1.10198 H 1 UNL1 0
37 C1 2.98013 1.75661 6.69816 C.3 2 UNL1 0
38 C2 3.08409 1.39846 5.20445 C.3 2 UNL1 0
39 C3 4.32791 0.516686 4.99033 C.3 2 UNL1 0
40 C4 5.5519 1.31371 5.47407 C.3 2 UNL1 0
41 C5 6.89795 0.57225 5.33714 C.3 2 UNL1 0
42 C6 6.97671 -0.721488 6.17255 C.3 2 UNL1 0
43 C7 6.03635 -1.81707 5.63419 C.3 2 UNL1 0
44 C8 7.95481 1.56102 5.86036 C.3 2 UNL1 0
45 O1 7.988 2.77544 4.96206 O.3 2 UNL1 0
46 C9 9.04571 2.52562 3.9132 C.3 2 UNL1 0
47 C10 8.78561 1.21152 3.1524 C.3 2 UNL1 0
48 O2 6.27736 1.63556 2.85826 O.3 2 UNL1 0
49 C11 7.58325 1.28302 2.18996 C.3 2 UNL1 0
50 H1 3.9231 2.31216 7.01822 H 2 UNL1 0
51 H2 2.87651 0.80096 7.31113 H 2 UNL1 0
52 H3 2.06917 2.41987 6.86924 H 2 UNL1 0
53 H4 2.15007 0.834388 4.87428 H 2 UNL1 0
54 H5 3.18924 2.35259 4.58905 H 2 UNL1 0
55 H6 4.43852 0.258031 3.88499 H 2 UNL1 0
56 H7 4.20907 -0.431996 5.60694 H 2 UNL1 0
57 H8 5.3953 1.58088 6.57143 H 2 UNL1 0
58 H9 5.6137 2.27619 4.86597 H 2 UNL1 0
59 H10 7.11777 0.321572 4.24704 H 2 UNL1 0
60 H11 6.72837 -0.492283 7.26141 H 2 UNL1 0
61 H12 8.04315 -1.11856 6.10777 H 2 UNL1 0
62 H13 6.17459 -2.76505 6.25164 H 2 UNL1 0
63 H14 6.29485 -2.0354 4.54496 H 2 UNL1 0
64 H15 4.95144 -1.48573 5.70823 H 2 UNL1 0
65 H16 8.98668 1.07618 5.86665 H 2 UNL1 0
66 H17 7.66942 1.86639 6.92085 H 2 UNL1 0
67 H18 10.0397 2.42137 4.46139 H 2 UNL1 0
68 H19 9.11274 3.39879 3.18313 H 2 UNL1 0
69 H20 8.62832 0.375151 3.91123 H 2 UNL1 0
70 H21 7.47061 0.264186 1.69142 H 2 UNL1 0
71 H22 7.79128 2.06333 1.3852 H 2 UNL1 0
72 H 9.70557 0.973908 2.5226 H 2 UNL1 0
73 C1 10.4946 6.62542 3.84484 C.3 3 UNL1 0
74 C2 10.8024 6.49132 2.34235 C.3 3 UNL1 0
75 C3 11.9166 5.44686 2.14879 C.3 3 UNL1 0
76 C4 13.1677 5.92049 2.91124 C.3 3 UNL1 0
77 C5 14.3858 4.99575 2.70908 C.3 3 UNL1 0
78 C6 14.2047 3.57679 3.28746 C.3 3 UNL1 0
79 C7 13.0991 2.77874 2.57063 C.3 3 UNL1 0
80 C8 15.5748 5.6555 3.43114 C.3 3 UNL1 0
81 O1 15.7862 7.04049 2.86804 O.3 3 UNL1 0
82 C9 16.9212 7.70128 3.61123 C.3 3 UNL1 0
83 C10 18.2127 6.88593 3.42541 C.3 3 UNL1 0
84 O2 19.4561 7.6385 3.80261 O.3 3 UNL1 0
85 C11 19.1962 7.34813 2.33566 C.3 3 UNL1 0
86 H1 11.438 6.95174 4.395 H 3 UNL1 0
87 H2 10.146 5.61912 4.25195 H 3 UNL1 0
88 H3 9.67485 7.40303 3.99786 H 3 UNL1 0
89 H4 9.86429 6.15939 1.7864 H 3 UNL1 0
90 H5 11.1509 7.4975 1.93482 H 3 UNL1 0
91 H6 12.1567 5.34979 1.0385 H 3 UNL1 0
92 H7 11.5593 4.44684 2.55629 H 3 UNL1 0
93 H8 12.9275 6.00142 4.02253 H 3 UNL1 0
94 H9 13.4469 6.95305 2.51599 H 3 UNL1 0
95 H10 14.6236 4.9228 1.59688 H 3 UNL1 0
96 H11 13.9653 3.64671 4.39968 H 3 UNL1 0
97 H12 15.187 3.0139 3.1524 H 3 UNL1 0
98 H13 13.0579 1.72395 3.00432 H 3 UNL1 0
99 H14 13.334 2.71913 1.45734 H 3 UNL1 0
100 H15 12.0891 3.27719 2.72392 H 3 UNL1 0
101 H16 16.5162 5.03147 3.2763 H 3 UNL1 0
102 H17 15.3458 5.73041 4.54533 H 3 UNL1 0
103 H18 16.6614 7.74738 4.71998 H 3 UNL1 0
104 H19 17.0814 8.75868 3.21451 H 3 UNL1 0
105 H20 18.2477 5.78284 3.72155 H 3 UNL1 0
106 H21 19.1173 8.3805 1.86219 H 3 UNL1 0
107 H22 20.0676 6.68247 2.01879 H 3 UNL1 0
@<TRIPOS>BOND
1 2 3 1
2 2 17 1
3 2 18 1
4 3 4 1
5 3 19 1
6 3 20 1
7 4 5 1
8 4 21 1
9 4 22 1
10 5 6 1
11 5 8 1
12 5 23 1
13 6 7 1
14 6 24 1
15 6 25 1
16 7 26 1
17 7 27 1
18 7 28 1
19 8 9 1
20 8 29 1
21 8 30 1
22 9 10 1
23 10 11 1
24 10 31 1
25 10 32 1
26 11 13 1
27 11 33 1
28 12 13 1
29 13 34 1
30 13 35 1
31 1 15 1
32 1 16 1
33 1 14 1
34 1 2 1
35 12 36 1
36 38 39 1
37 38 53 1
38 38 54 1
39 39 40 1
40 39 55 1
41 39 56 1
42 40 41 1
43 40 57 1
44 40 58 1
45 41 42 1
46 41 44 1
47 41 59 1
48 42 43 1
49 42 60 1
50 42 61 1
51 43 62 1
52 43 63 1
53 43 64 1
54 44 45 1
55 44 65 1
56 44 66 1
57 45 46 1
58 46 47 1
59 46 67 1
60 46 68 1
61 47 49 1
62 47 69 1
63 48 49 1
64 49 70 1
65 49 71 1
66 37 51 1
67 37 52 1
68 37 50 1
69 37 38 1
70 47 72 1
71 48 11 1
72 74 75 1
73 74 89 1
74 74 90 1
75 75 76 1
76 75 91 1
77 75 92 1
78 76 77 1
79 76 93 1
80 76 94 1
81 77 78 1
82 77 80 1
83 77 95 1
84 78 79 1
85 78 96 1
86 78 97 1
87 79 98 1
88 79 99 1
89 79 100 1
90 80 81 1
91 80 101 1
92 80 102 1
93 81 82 1
94 82 83 1
95 82 103 1
96 82 104 1
97 83 84 1
98 83 85 1
99 83 105 1
100 84 85 1
101 85 106 1
102 85 107 1
103 73 87 1
104 73 88 1
105 73 86 1
106 73 74 1
@<TRIPOS>SUBSTRUCTURE
1 UNL1 1 **** **** C11H
2 UNL1 37 **** **** C110
3 UNL1 73 **** **** C111
